REMARK  Name = /storage/kiran-stuff/aaRS/phase2/energy_scoring/vina_182jobs/anc_prors_cat_ASN_ASN/ligand.h.pdb
REMARK  5 active torsions:
REMARK  status: ('A' for Active; 'I' for Inactive)
REMARK    1  A    between atoms: N_1  and  CA_2
REMARK    2  A    between atoms: CA_2  and  C_3
REMARK    3  A    between atoms: CA_2  and  CB_5
REMARK    4  A    between atoms: C_3  and  O_4
REMARK    5  A    between atoms: CB_5  and  CG_6
REMARK                            x       y       z     vdW  Elec       q    Type
REMARK                         _______ _______ _______ _____ _____    ______ ____
ROOT
ATOM      1  CA  ASN B   1       4.412  -5.661  22.531  0.00  0.00    +0.000 C 
ENDROOT
BRANCH   1   2
ATOM      2  N   ASN B   1       3.041  -6.047  22.834  0.00  0.00    +0.000 NA
ATOM      3  H   ASN B   1       2.644  -5.390  23.506  0.00  0.00    +0.000 HD
ATOM      4  H   ASN B   1       3.031  -6.986  23.232  0.00  0.00    +0.000 HD
ENDBRANCH   1   2
BRANCH   1   5
ATOM      5  C   ASN B   1       4.482  -4.255  21.964  0.00  0.00    +0.000 C 
ATOM      6  OXT ASN B   1       5.586  -3.693  21.886  0.00  0.00    +0.000 OA
BRANCH   5   7
ATOM      7  O   ASN B   1       3.467  -3.684  21.563  0.00  0.00    +0.000 OA
ATOM      8  H   ASN B   1       2.635  -4.111  21.624  0.00  0.00    +0.000 HD
ENDBRANCH   5   7
ENDBRANCH   1   5
BRANCH   1   9
ATOM      9  CB  ASN B   1       5.017  -6.633  21.530  0.00  0.00    +0.000 C 
BRANCH   9  10
ATOM     10  CG  ASN B   1       6.529  -6.713  21.577  0.00  0.00    +0.000 C 
ATOM     11  OD1 ASN B   1       7.095  -6.935  22.624  0.00  0.00    +0.000 OA
ATOM     12  ND2 ASN B   1       7.211  -6.554  20.463  0.00  0.00    +0.000 N 
ATOM     13  H   ASN B   1       6.740  -6.373  19.619  0.00  0.00    +0.000 HD
ATOM     14  H   ASN B   1       8.194  -6.615  20.474  0.00  0.00    +0.000 HD
ENDBRANCH   9  10
ENDBRANCH   1   9
TORSDOF 5
