REMARK  Name = /storage/kiran-stuff/aaRS/phase2/energy_scoring/vina_182jobs/anc_prors_cat_PHE_PHE/ligand.h.pdb
REMARK  5 active torsions:
REMARK  status: ('A' for Active; 'I' for Inactive)
REMARK    1  A    between atoms: N_1  and  CA_2
REMARK    2  A    between atoms: CA_2  and  C_3
REMARK    3  A    between atoms: CA_2  and  CB_5
REMARK    4  A    between atoms: C_3  and  OXT_12
REMARK    5  A    between atoms: CB_5  and  CG_6
REMARK                            x       y       z     vdW  Elec       q    Type
REMARK                         _______ _______ _______ _____ _____    ______ ____
ROOT
ATOM      1  CA  PHE B   1     -11.907 -20.174   3.147  0.00  0.00    +0.000 C 
ENDROOT
BRANCH   1   2
ATOM      2  N   PHE B   1     -11.018 -21.319   3.155  0.00  0.00    +0.000 NA
ATOM      3  H   PHE B   1     -11.031 -21.767   2.239  0.00  0.00    +0.000 HD
ATOM      4  H   PHE B   1     -11.328 -21.985   3.863  0.00  0.00    +0.000 HD
ENDBRANCH   1   2
BRANCH   1   5
ATOM      5  C   PHE B   1     -11.926 -19.469   4.492  0.00  0.00    +0.000 C 
ATOM      6  O   PHE B   1     -11.019 -19.647   5.316  0.00  0.00    +0.000 OA
BRANCH   5   7
ATOM      7  OXT PHE B   1     -12.857 -18.694   4.755  0.00  0.00    +0.000 OA
ATOM      8  H   PHE B   1     -13.544 -18.558   4.131  0.00  0.00    +0.000 HD
ENDBRANCH   5   7
ENDBRANCH   1   5
BRANCH   1   9
ATOM      9  CB  PHE B   1     -13.348 -20.611   2.789  0.00  0.00    +0.000 C 
BRANCH   9  10
ATOM     10  CG  PHE B   1     -13.453 -21.017   1.354  0.00  0.00    +0.000 A 
ATOM     11  CD1 PHE B   1     -13.801 -22.320   1.009  0.00  0.00    +0.000 A 
ATOM     12  CD2 PHE B   1     -13.183 -20.088   0.369  0.00  0.00    +0.000 A 
ATOM     13  CE1 PHE B   1     -13.874 -22.673  -0.331  0.00  0.00    +0.000 A 
ATOM     14  CE2 PHE B   1     -13.266 -20.445  -0.968  0.00  0.00    +0.000 A 
ATOM     15  CZ  PHE B   1     -13.609 -21.730  -1.326  0.00  0.00    +0.000 A 
ENDBRANCH   9  10
ENDBRANCH   1   9
TORSDOF 5
