REMARK  Name = /storage/kiran-stuff/aaRS/phase2/energy_scoring/vina_182jobs/anc_prors_cat_GLY_GLY/ligand.h.pdb
REMARK  3 active torsions:
REMARK  status: ('A' for Active; 'I' for Inactive)
REMARK    1  A    between atoms: N_1  and  CA_2
REMARK    2  A    between atoms: CA_2  and  C_3
REMARK    3  A    between atoms: C_3  and  OXT_5
REMARK                            x       y       z     vdW  Elec       q    Type
REMARK                         _______ _______ _______ _____ _____    ______ ____
ROOT
ATOM      1  CA  GLY B   1      -1.254 -10.500  15.617  0.00  0.00    +0.000 C 
ENDROOT
BRANCH   1   2
ATOM      2  N   GLY B   1      -1.387 -11.762  14.893  0.00  0.00    +0.000 NA
ATOM      3  H   GLY B   1      -1.713 -11.577  13.944  0.00  0.00    +0.000 HD
ATOM      4  H   GLY B   1      -2.060 -12.360  15.373  0.00  0.00    +0.000 HD
ENDBRANCH   1   2
BRANCH   1   5
ATOM      5  C   GLY B   1      -0.778 -10.718  17.016  0.00  0.00    +0.000 C 
ATOM      6  O   GLY B   1       0.380 -11.103  17.204  0.00  0.00    +0.000 OA
BRANCH   5   7
ATOM      7  OXT GLY B   1      -1.533 -10.557  17.985  0.00  0.00    +0.000 OA
ATOM      8  H   GLY B   1      -2.413 -10.265  17.850  0.00  0.00    +0.000 HD
ENDBRANCH   5   7
ENDBRANCH   1   5
TORSDOF 3
