REMARK  Name = /storage/kiran-stuff/aaRS/phase2/energy_scoring/vina_182jobs/anc_prors_cat_GLY_GLY/ligand.h.pdb
REMARK  3 active torsions:
REMARK  status: ('A' for Active; 'I' for Inactive)
REMARK    1  A    between atoms: N_1  and  CA_2
REMARK    2  A    between atoms: CA_2  and  C_3
REMARK    3  A    between atoms: C_3  and  OXT_5
REMARK                            x       y       z     vdW  Elec       q    Type
REMARK                         _______ _______ _______ _____ _____    ______ ____
ROOT
ATOM      1  CA  GLY B   1       9.271  -1.235  17.418  0.00  0.00    +0.000 C 
ENDROOT
BRANCH   1   2
ATOM      2  N   GLY B   1       9.896  -0.676  18.615  0.00  0.00    +0.000 NA
ATOM      3  H   GLY B   1      10.817  -1.097  18.746  0.00  0.00    +0.000 HD
ATOM      4  H   GLY B   1       9.313  -0.876  19.428  0.00  0.00    +0.000 HD
ENDBRANCH   1   2
BRANCH   1   5
ATOM      5  C   GLY B   1       7.918  -0.649  17.183  0.00  0.00    +0.000 C 
ATOM      6  O   GLY B   1       7.027  -1.364  16.713  0.00  0.00    +0.000 OA
BRANCH   5   7
ATOM      7  OXT GLY B   1       7.684   0.545  17.413  0.00  0.00    +0.000 OA
ATOM      8  H   GLY B   1       8.355   1.094  17.769  0.00  0.00    +0.000 HD
ENDBRANCH   5   7
ENDBRANCH   1   5
TORSDOF 3
