REMARK  Name = /storage/kiran-stuff/aaRS/phase2/energy_scoring/vina_182jobs/anc_prors_cat_TYR_TYR/ligand.h.pdb
REMARK  6 active torsions:
REMARK  status: ('A' for Active; 'I' for Inactive)
REMARK    1  A    between atoms: N_1  and  CA_2
REMARK    2  A    between atoms: CA_2  and  C_3
REMARK    3  A    between atoms: CA_2  and  CB_5
REMARK    4  A    between atoms: C_3  and  O_4
REMARK    5  A    between atoms: CB_5  and  CG_6
REMARK    6  A    between atoms: CZ_11  and  OH_12
REMARK                            x       y       z     vdW  Elec       q    Type
REMARK                         _______ _______ _______ _____ _____    ______ ____
ROOT
ATOM      1  CB  TYR B   1     -11.460   8.531   1.250  0.00  0.00    +0.000 C 
ENDROOT
BRANCH   1   2
ATOM      2  CG  TYR B   1     -11.114   8.476  -0.209  0.00  0.00    +0.000 A 
ATOM      3  CD1 TYR B   1     -10.487   9.556  -0.830  0.00  0.00    +0.000 A 
ATOM      4  CD2 TYR B   1     -11.394   7.351  -0.993  0.00  0.00    +0.000 A 
ATOM      5  CE1 TYR B   1     -10.160   9.516  -2.197  0.00  0.00    +0.000 A 
ATOM      6  CE2 TYR B   1     -11.067   7.303  -2.350  0.00  0.00    +0.000 A 
ATOM      7  CZ  TYR B   1     -10.440   8.392  -2.977  0.00  0.00    +0.000 A 
BRANCH   7   8
ATOM      8  OH  TYR B   1     -10.135   8.347  -4.301  0.00  0.00    +0.000 OA
ATOM      9  H   TYR B   1     -10.334   7.581  -4.803  0.00  0.00    +0.000 HD
ENDBRANCH   7   8
ENDBRANCH   1   2
BRANCH   1  10
ATOM     10  CA  TYR B   1     -10.471   9.392   2.070  0.00  0.00    +0.000 C 
BRANCH  10  11
ATOM     11  N   TYR B   1      -9.155   8.797   2.038  0.00  0.00    +0.000 NA
ATOM     12  H   TYR B   1      -8.509   9.370   2.581  0.00  0.00    +0.000 HD
ATOM     13  H   TYR B   1      -8.831   8.740   1.073  0.00  0.00    +0.000 HD
ENDBRANCH  10  11
BRANCH  10  14
ATOM     14  C   TYR B   1     -10.966   9.527   3.495  0.00  0.00    +0.000 C 
ATOM     15  OXT TYR B   1     -10.293  10.150   4.333  0.00  0.00    +0.000 OA
BRANCH  14  16
ATOM     16  O   TYR B   1     -12.041   9.003   3.815  0.00  0.00    +0.000 OA
ATOM     17  H   TYR B   1     -12.541   8.535   3.176  0.00  0.00    +0.000 HD
ENDBRANCH  14  16
ENDBRANCH  10  14
ENDBRANCH   1  10
TORSDOF 6
