REMARK  Name = /storage/kiran-stuff/aaRS/phase2/energy_scoring/vina_182jobs/anc_prors_cat_TYR_TYR/ligand.h.pdb
REMARK  6 active torsions:
REMARK  status: ('A' for Active; 'I' for Inactive)
REMARK    1  A    between atoms: N_1  and  CA_2
REMARK    2  A    between atoms: CA_2  and  C_3
REMARK    3  A    between atoms: CA_2  and  CB_5
REMARK    4  A    between atoms: C_3  and  O_4
REMARK    5  A    between atoms: CB_5  and  CG_6
REMARK    6  A    between atoms: CZ_11  and  OH_12
REMARK                            x       y       z     vdW  Elec       q    Type
REMARK                         _______ _______ _______ _____ _____    ______ ____
ROOT
ATOM      1  CB  TYR B   1     -12.775   9.008   1.052  0.00  0.00    +0.000 C 
ENDROOT
BRANCH   1   2
ATOM      2  CG  TYR B   1     -12.873   9.248   2.530  0.00  0.00    +0.000 A 
ATOM      3  CD1 TYR B   1     -13.948   8.741   3.260  0.00  0.00    +0.000 A 
ATOM      4  CD2 TYR B   1     -11.899   9.971   3.227  0.00  0.00    +0.000 A 
ATOM      5  CE1 TYR B   1     -14.050   8.961   4.645  0.00  0.00    +0.000 A 
ATOM      6  CE2 TYR B   1     -11.992  10.188   4.604  0.00  0.00    +0.000 A 
ATOM      7  CZ  TYR B   1     -13.076   9.683   5.339  0.00  0.00    +0.000 A 
BRANCH   7   8
ATOM      8  OH  TYR B   1     -13.171   9.907   6.677  0.00  0.00    +0.000 OA
ATOM      9  H   TYR B   1     -12.504  10.395   7.119  0.00  0.00    +0.000 HD
ENDBRANCH   7   8
ENDBRANCH   1   2
BRANCH   1  10
ATOM     10  CA  TYR B   1     -12.134   7.644   0.705  0.00  0.00    +0.000 C 
BRANCH  10  11
ATOM     11  N   TYR B   1     -10.700   7.720   0.862  0.00  0.00    +0.000 NA
ATOM     12  H   TYR B   1     -10.284   6.817   0.632  0.00  0.00    +0.000 HD
ATOM     13  H   TYR B   1     -10.476   7.961   1.827  0.00  0.00    +0.000 HD
ENDBRANCH  10  11
BRANCH  10  14
ATOM     14  C   TYR B   1     -12.500   7.248  -0.710  0.00  0.00    +0.000 C 
ATOM     15  OXT TYR B   1     -11.642   7.275  -1.607  0.00  0.00    +0.000 OA
BRANCH  14  16
ATOM     16  O   TYR B   1     -13.663   6.907  -0.961  0.00  0.00    +0.000 OA
ATOM     17  H   TYR B   1     -14.304   6.890  -0.278  0.00  0.00    +0.000 HD
ENDBRANCH  14  16
ENDBRANCH  10  14
ENDBRANCH   1  10
TORSDOF 6
