REMARK  Name = /storage/kiran-stuff/aaRS/phase2/energy_scoring/vina_182jobs/anc_thrrs_cat_zn_LEU_LEU/ligand.h.pdb
REMARK  7 active torsions:
REMARK  status: ('A' for Active; 'I' for Inactive)
REMARK    1  A    between atoms: N_1  and  CA_2
REMARK    2  A    between atoms: CA_2  and  C_3
REMARK    3  A    between atoms: CA_2  and  CB_5
REMARK    4  A    between atoms: C_3  and  O_4
REMARK    5  A    between atoms: CB_5  and  CG_6
REMARK    6  A    between atoms: CG_6  and  CD1_7
REMARK    7  A    between atoms: CG_6  and  CD2_8
REMARK                            x       y       z     vdW  Elec       q    Type
REMARK                         _______ _______ _______ _____ _____    ______ ____
ROOT
ATOM      1  CA  LEU B   1      -4.919   2.070   4.605  0.00  0.00    +0.000 C 
ENDROOT
BRANCH   1   2
ATOM      2  N   LEU B   1      -5.029   1.702   3.205  0.00  0.00    +0.000 NA
ATOM      3  H   LEU B   1      -4.251   1.093   2.951  0.00  0.00    +0.000 HD
ATOM      4  H   LEU B   1      -5.004   2.544   2.629  0.00  0.00    +0.000 HD
ENDBRANCH   1   2
BRANCH   1   5
ATOM      5  C   LEU B   1      -6.053   2.973   5.023  0.00  0.00    +0.000 C 
ATOM      6  OXT LEU B   1      -6.527   3.756   4.195  0.00  0.00    +0.000 OA
BRANCH   5   7
ATOM      7  O   LEU B   1      -6.462   2.942   6.192  0.00  0.00    +0.000 OA
ATOM      8  H   LEU B   1      -6.087   2.339   6.804  0.00  0.00    +0.000 HD
ENDBRANCH   5   7
ENDBRANCH   1   5
BRANCH   1   9
ATOM      9  CB  LEU B   1      -3.611   2.784   4.871  0.00  0.00    +0.000 C 
BRANCH   9  10
ATOM     10  CG  LEU B   1      -2.424   1.860   5.115  0.00  0.00    +0.000 C 
ATOM     11  CD1 LEU B   1      -1.174   2.731   5.245  0.00  0.00    +0.000 C 
ATOM     12  CD2 LEU B   1      -2.646   1.047   6.367  0.00  0.00    +0.000 C 
ENDBRANCH   9  10
ENDBRANCH   1   9
TORSDOF 5
