REMARK  Name = /storage/kiran-stuff/aaRS/phase2/energy_scoring/vina_182jobs/anc_prors_edit_CYS_CYS/ligand.h.pdb
REMARK  5 active torsions:
REMARK  status: ('A' for Active; 'I' for Inactive)
REMARK    1  A    between atoms: N_1  and  CA_2
REMARK    2  A    between atoms: CA_2  and  C_3
REMARK    3  A    between atoms: CA_2  and  CB_5
REMARK    4  A    between atoms: C_3  and  OXT_7
REMARK    5  A    between atoms: CB_5  and  SG_6
REMARK                            x       y       z     vdW  Elec       q    Type
REMARK                         _______ _______ _______ _____ _____    ______ ____
ROOT
ATOM      1  CA  CYS B   1      16.135 -17.065  -2.605  0.00  0.00    +0.000 C 
ENDROOT
BRANCH   1   2
ATOM      2  N   CYS B   1      15.835 -18.447  -2.198  0.00  0.00    +0.000 NA
ATOM      3  H   CYS B   1      14.876 -18.678  -2.458  0.00  0.00    +0.000 HD
ATOM      4  H   CYS B   1      15.943 -18.534  -1.188  0.00  0.00    +0.000 HD
ENDBRANCH   1   2
BRANCH   1   5
ATOM      5  C   CYS B   1      15.916 -16.851  -4.069  0.00  0.00    +0.000 C 
ATOM      6  O   CYS B   1      14.763 -16.924  -4.531  0.00  0.00    +0.000 OA
BRANCH   5   7
ATOM      7  OXT CYS B   1      16.878 -16.587  -4.804  0.00  0.00    +0.000 OA
ATOM      8  H   CYS B   1      17.741 -16.534  -4.444  0.00  0.00    +0.000 HD
ENDBRANCH   5   7
ENDBRANCH   1   5
BRANCH   1   9
ATOM      9  CB  CYS B   1      17.556 -16.723  -2.220  0.00  0.00    +0.000 C 
BRANCH   9  10
ATOM     10  SG  CYS B   1      18.397 -18.102  -1.451  0.00  0.00    +0.000 S 
ATOM     11  H   CYS B   1      17.747 -18.450  -0.308  0.00  0.00    +0.000 HD
ENDBRANCH   9  10
ENDBRANCH   1   9
TORSDOF 5
