REMARK  Name = /storage/kiran-stuff/aaRS/phase2/energy_scoring/vina_182jobs/anc_prors_edit_CYS_CYS/ligand.h.pdb
REMARK  5 active torsions:
REMARK  status: ('A' for Active; 'I' for Inactive)
REMARK    1  A    between atoms: N_1  and  CA_2
REMARK    2  A    between atoms: CA_2  and  C_3
REMARK    3  A    between atoms: CA_2  and  CB_5
REMARK    4  A    between atoms: C_3  and  OXT_7
REMARK    5  A    between atoms: CB_5  and  SG_6
REMARK                            x       y       z     vdW  Elec       q    Type
REMARK                         _______ _______ _______ _____ _____    ______ ____
ROOT
ATOM      1  CA  CYS B   1       9.969 -15.352  -5.499  0.00  0.00    +0.000 C 
ENDROOT
BRANCH   1   2
ATOM      2  N   CYS B   1       8.754 -16.041  -5.037  0.00  0.00    +0.000 NA
ATOM      3  H   CYS B   1       8.297 -16.493  -5.829  0.00  0.00    +0.000 HD
ATOM      4  H   CYS B   1       8.117 -15.363  -4.619  0.00  0.00    +0.000 HD
ENDBRANCH   1   2
BRANCH   1   5
ATOM      5  C   CYS B   1      10.911 -16.281  -6.195  0.00  0.00    +0.000 C 
ATOM      6  O   CYS B   1      11.604 -15.855  -7.137  0.00  0.00    +0.000 OA
BRANCH   5   7
ATOM      7  OXT CYS B   1      11.006 -17.458  -5.820  0.00  0.00    +0.000 OA
ATOM      8  H   CYS B   1      10.479 -17.767  -5.110  0.00  0.00    +0.000 HD
ENDBRANCH   5   7
ENDBRANCH   1   5
BRANCH   1   9
ATOM      9  CB  CYS B   1      10.646 -14.682  -4.325  0.00  0.00    +0.000 C 
BRANCH   9  10
ATOM     10  SG  CYS B   1      10.170 -12.965  -4.161  0.00  0.00    +0.000 S 
ATOM     11  H   CYS B   1      10.541 -12.283  -5.278  0.00  0.00    +0.000 HD
ENDBRANCH   9  10
ENDBRANCH   1   9
TORSDOF 5
