REMARK  Name = /storage/kiran-stuff/aaRS/phase2/energy_scoring/vina_182jobs/anc_thrrs_cat_ASN_ASN/ligand.h.pdb
REMARK  5 active torsions:
REMARK  status: ('A' for Active; 'I' for Inactive)
REMARK    1  A    between atoms: N_1  and  CA_2
REMARK    2  A    between atoms: CA_2  and  C_3
REMARK    3  A    between atoms: CA_2  and  CB_5
REMARK    4  A    between atoms: C_3  and  O_4
REMARK    5  A    between atoms: CB_5  and  CG_6
REMARK                            x       y       z     vdW  Elec       q    Type
REMARK                         _______ _______ _______ _____ _____    ______ ____
ROOT
ATOM      1  CA  ASN B   1      -3.732   0.445   6.584  0.00  0.00    +0.000 C 
ENDROOT
BRANCH   1   2
ATOM      2  N   ASN B   1      -2.363   0.717   6.998  0.00  0.00    +0.000 NA
ATOM      3  H   ASN B   1      -2.126   1.683   6.774  0.00  0.00    +0.000 HD
ATOM      4  H   ASN B   1      -1.728   0.088   6.506  0.00  0.00    +0.000 HD
ENDBRANCH   1   2
BRANCH   1   5
ATOM      5  C   ASN B   1      -4.132  -0.985   6.897  0.00  0.00    +0.000 C 
ATOM      6  OXT ASN B   1      -5.163  -1.440   6.417  0.00  0.00    +0.000 OA
BRANCH   5   7
ATOM      7  O   ASN B   1      -3.441  -1.687   7.635  0.00  0.00    +0.000 OA
ATOM      8  H   ASN B   1      -2.652  -1.343   8.004  0.00  0.00    +0.000 HD
ENDBRANCH   5   7
ENDBRANCH   1   5
BRANCH   1   9
ATOM      9  CB  ASN B   1      -3.883   0.707   5.095  0.00  0.00    +0.000 C 
BRANCH   9  10
ATOM     10  CG  ASN B   1      -3.651   2.157   4.755  0.00  0.00    +0.000 C 
ATOM     11  OD1 ASN B   1      -2.523   2.612   4.645  0.00  0.00    +0.000 OA
ATOM     12  ND2 ASN B   1      -4.727   2.941   4.639  0.00  0.00    +0.000 N 
ATOM     13  H   ASN B   1      -4.620   3.894   4.418  0.00  0.00    +0.000 HD
ATOM     14  H   ASN B   1      -5.627   2.565   4.775  0.00  0.00    +0.000 HD
ENDBRANCH   9  10
ENDBRANCH   1   9
TORSDOF 5
