REMARK  Name = /storage/kiran-stuff/aaRS/phase2/energy_scoring/vina_182jobs/anc_thrrs_cat_ASN_ASN/ligand.h.pdb
REMARK  5 active torsions:
REMARK  status: ('A' for Active; 'I' for Inactive)
REMARK    1  A    between atoms: N_1  and  CA_2
REMARK    2  A    between atoms: CA_2  and  C_3
REMARK    3  A    between atoms: CA_2  and  CB_5
REMARK    4  A    between atoms: C_3  and  O_4
REMARK    5  A    between atoms: CB_5  and  CG_6
REMARK                            x       y       z     vdW  Elec       q    Type
REMARK                         _______ _______ _______ _____ _____    ______ ____
ROOT
ATOM      1  CA  ASN B   1      -3.433   0.807   7.088  0.00  0.00    +0.000 C 
ENDROOT
BRANCH   1   2
ATOM      2  N   ASN B   1      -2.238   1.620   6.915  0.00  0.00    +0.000 NA
ATOM      3  H   ASN B   1      -2.506   2.558   6.617  0.00  0.00    +0.000 HD
ATOM      4  H   ASN B   1      -1.639   1.196   6.206  0.00  0.00    +0.000 HD
ENDBRANCH   1   2
BRANCH   1   5
ATOM      5  C   ASN B   1      -3.085  -0.602   7.532  0.00  0.00    +0.000 C 
ATOM      6  OXT ASN B   1      -3.967  -1.451   7.584  0.00  0.00    +0.000 OA
BRANCH   5   7
ATOM      7  O   ASN B   1      -1.934  -0.898   7.850  0.00  0.00    +0.000 OA
ATOM      8  H   ASN B   1      -1.257  -0.252   7.811  0.00  0.00    +0.000 HD
ENDBRANCH   5   7
ENDBRANCH   1   5
BRANCH   1   9
ATOM      9  CB  ASN B   1      -4.217   0.757   5.787  0.00  0.00    +0.000 C 
BRANCH   9  10
ATOM     10  CG  ASN B   1      -4.108   2.049   5.018  0.00  0.00    +0.000 C 
ATOM     11  OD1 ASN B   1      -3.189   2.249   4.239  0.00  0.00    +0.000 OA
ATOM     12  ND2 ASN B   1      -5.021   2.992   5.266  0.00  0.00    +0.000 N 
ATOM     13  H   ASN B   1      -4.986   3.850   4.785  0.00  0.00    +0.000 HD
ATOM     14  H   ASN B   1      -5.729   2.828   5.931  0.00  0.00    +0.000 HD
ENDBRANCH   9  10
ENDBRANCH   1   9
TORSDOF 5
