REMARK  Name = /storage/kiran-stuff/aaRS/phase2/energy_scoring/vina_182jobs/modern_thrrs_ASN_ASN/ligand.h.pdb
REMARK  5 active torsions:
REMARK  status: ('A' for Active; 'I' for Inactive)
REMARK    1  A    between atoms: N_1  and  CA_2
REMARK    2  A    between atoms: CA_2  and  C_3
REMARK    3  A    between atoms: CA_2  and  CB_5
REMARK    4  A    between atoms: C_3  and  OXT_9
REMARK    5  A    between atoms: CB_5  and  CG_6
REMARK                            x       y       z     vdW  Elec       q    Type
REMARK                         _______ _______ _______ _____ _____    ______ ____
ROOT
ATOM      1  CA  ASN B   1       3.241  15.017 -13.809  0.00  0.00    +0.000 C 
ENDROOT
BRANCH   1   2
ATOM      2  N   ASN B   1       2.959  15.715 -12.542  0.00  0.00    +0.000 NA
ATOM      3  H   ASN B   1       2.107  16.267 -12.640  0.00  0.00    +0.000 HD
ATOM      4  H   ASN B   1       3.739  16.332 -12.313  0.00  0.00    +0.000 HD
ENDBRANCH   1   2
BRANCH   1   5
ATOM      5  C   ASN B   1       4.502  14.177 -13.724  0.00  0.00    +0.000 C 
ATOM      6  O   ASN B   1       5.379  14.206 -14.551  0.00  0.00    +0.000 OA
BRANCH   5   7
ATOM      7  OXT ASN B   1       4.636  13.424 -12.785  0.00  0.00    +0.000 OA
ATOM      8  H   ASN B   1       3.973  13.377 -12.124  0.00  0.00    +0.000 HD
ENDBRANCH   5   7
ENDBRANCH   1   5
BRANCH   1   9
ATOM      9  CB  ASN B   1       3.348  16.037 -14.945  0.00  0.00    +0.000 C 
BRANCH   9  10
ATOM     10  CG  ASN B   1       4.365  17.142 -14.745  0.00  0.00    +0.000 C 
ATOM     11  OD1 ASN B   1       5.521  16.909 -14.504  0.00  0.00    +0.000 OA
ATOM     12  ND2 ASN B   1       3.958  18.399 -14.872  0.00  0.00    +0.000 N 
ATOM     13  H   ASN B   1       3.013  18.593 -15.069  0.00  0.00    +0.000 HD
ATOM     14  H   ASN B   1       4.601  19.137 -14.769  0.00  0.00    +0.000 HD
ENDBRANCH   9  10
ENDBRANCH   1   9
TORSDOF 5
