REMARK  Name = /storage/kiran-stuff/aaRS/phase2/energy_scoring/vina_182jobs/modern_thrrs_ASN_ASN/ligand.h.pdb
REMARK  5 active torsions:
REMARK  status: ('A' for Active; 'I' for Inactive)
REMARK    1  A    between atoms: N_1  and  CA_2
REMARK    2  A    between atoms: CA_2  and  C_3
REMARK    3  A    between atoms: CA_2  and  CB_5
REMARK    4  A    between atoms: C_3  and  OXT_9
REMARK    5  A    between atoms: CB_5  and  CG_6
REMARK                            x       y       z     vdW  Elec       q    Type
REMARK                         _______ _______ _______ _____ _____    ______ ____
ROOT
ATOM      1  CA  ASN B   1       4.380  14.716 -13.942  0.00  0.00    +0.000 C 
ENDROOT
BRANCH   1   2
ATOM      2  N   ASN B   1       4.485  15.561 -12.739  0.00  0.00    +0.000 NA
ATOM      3  H   ASN B   1       3.711  16.225 -12.720  0.00  0.00    +0.000 HD
ATOM      4  H   ASN B   1       5.369  16.071 -12.758  0.00  0.00    +0.000 HD
ENDBRANCH   1   2
BRANCH   1   5
ATOM      5  C   ASN B   1       5.509  13.706 -14.026  0.00  0.00    +0.000 C 
ATOM      6  O   ASN B   1       6.245  13.606 -14.976  0.00  0.00    +0.000 OA
BRANCH   5   7
ATOM      7  OXT ASN B   1       5.678  12.946 -13.098  0.00  0.00    +0.000 OA
ATOM      8  H   ASN B   1       5.123  12.997 -12.344  0.00  0.00    +0.000 HD
ENDBRANCH   5   7
ENDBRANCH   1   5
BRANCH   1   9
ATOM      9  CB  ASN B   1       4.354  15.601 -15.191  0.00  0.00    +0.000 C 
BRANCH   9  10
ATOM     10  CG  ASN B   1       5.010  16.960 -15.049  0.00  0.00    +0.000 C 
ATOM     11  OD1 ASN B   1       6.193  17.117 -15.207  0.00  0.00    +0.000 OA
ATOM     12  ND2 ASN B   1       4.237  18.003 -14.772  0.00  0.00    +0.000 N 
ATOM     13  H   ASN B   1       3.269  17.878 -14.642  0.00  0.00    +0.000 HD
ATOM     14  H   ASN B   1       4.632  18.901 -14.695  0.00  0.00    +0.000 HD
ENDBRANCH   9  10
ENDBRANCH   1   9
TORSDOF 5
