REMARK  Name = /storage/kiran-stuff/aaRS/phase2/energy_scoring/vina_182jobs/modern_prors_HIS_HIS/ligand.h.pdb
REMARK  5 active torsions:
REMARK  status: ('A' for Active; 'I' for Inactive)
REMARK    1  A    between atoms: N_1  and  CA_2
REMARK    2  A    between atoms: CA_2  and  C_3
REMARK    3  A    between atoms: CA_2  and  CB_5
REMARK    4  A    between atoms: C_3  and  O_4
REMARK    5  A    between atoms: CB_5  and  CG_6
REMARK                            x       y       z     vdW  Elec       q    Type
REMARK                         _______ _______ _______ _____ _____    ______ ____
ROOT
ATOM      1  CA  HIS B   1     -10.336   5.702   1.222  0.00  0.00    +0.000 C 
ENDROOT
BRANCH   1   2
ATOM      2  N   HIS B   1     -11.671   5.949   1.801  0.00  0.00    +0.000 NA
ATOM      3  H   HIS B   1     -12.370   5.417   1.283  0.00  0.00    +0.000 HD
ATOM      4  H   HIS B   1     -11.889   6.944   1.742  0.00  0.00    +0.000 HD
ENDBRANCH   1   2
BRANCH   1   5
ATOM      5  C   HIS B   1      -9.261   6.500   1.993  0.00  0.00    +0.000 C 
ATOM      6  OXT HIS B   1      -8.081   6.403   1.644  0.00  0.00    +0.000 OA
BRANCH   5   7
ATOM      7  O   HIS B   1      -9.581   7.215   2.949  0.00  0.00    +0.000 OA
ATOM      8  H   HIS B   1     -10.480   7.281   3.205  0.00  0.00    +0.000 HD
ENDBRANCH   5   7
ENDBRANCH   1   5
BRANCH   1   9
ATOM      9  CB  HIS B   1     -10.305   6.162  -0.224  0.00  0.00    +0.000 C 
BRANCH   9  10
ATOM     10  CG  HIS B   1     -11.129   7.383  -0.519  0.00  0.00    +0.000 C 
ATOM     11  ND1 HIS B   1     -12.027   7.453  -1.521  0.00  0.00    +0.000 NA
ATOM     12  CD2 HIS B   1     -11.147   8.586   0.125  0.00  0.00    +0.000 C 
ATOM     13  CE1 HIS B   1     -12.579   8.664  -1.513  0.00  0.00    +0.000 C 
ATOM     14  NE2 HIS B   1     -12.044   9.375  -0.502  0.00  0.00    +0.000 NA
ENDBRANCH   9  10
ENDBRANCH   1   9
TORSDOF 5
