REMARK  Name = /storage/kiran-stuff/aaRS/phase2/energy_scoring/vina_182jobs/anc_prors_edit_TYR_TYR/ligand.h.pdb
REMARK  6 active torsions:
REMARK  status: ('A' for Active; 'I' for Inactive)
REMARK    1  A    between atoms: N_1  and  CA_2
REMARK    2  A    between atoms: CA_2  and  C_3
REMARK    3  A    between atoms: CA_2  and  CB_5
REMARK    4  A    between atoms: C_3  and  O_4
REMARK    5  A    between atoms: CB_5  and  CG_6
REMARK    6  A    between atoms: CZ_11  and  OH_12
REMARK                            x       y       z     vdW  Elec       q    Type
REMARK                         _______ _______ _______ _____ _____    ______ ____
ROOT
ATOM      1  CB  TYR B   1      -2.442 -15.596   6.859  0.00  0.00    +0.000 C 
ENDROOT
BRANCH   1   2
ATOM      2  CG  TYR B   1      -1.271 -14.770   6.454  0.00  0.00    +0.000 A 
ATOM      3  CD1 TYR B   1      -0.901 -13.649   7.203  0.00  0.00    +0.000 A 
ATOM      4  CD2 TYR B   1      -0.517 -15.091   5.337  0.00  0.00    +0.000 A 
ATOM      5  CE1 TYR B   1       0.194 -12.872   6.834  0.00  0.00    +0.000 A 
ATOM      6  CE2 TYR B   1       0.579 -14.317   4.967  0.00  0.00    +0.000 A 
ATOM      7  CZ  TYR B   1       0.952 -13.204   5.705  0.00  0.00    +0.000 A 
BRANCH   7   8
ATOM      8  OH  TYR B   1       2.019 -12.454   5.349  0.00  0.00    +0.000 OA
ATOM      9  H   TYR B   1       2.520 -12.684   4.592  0.00  0.00    +0.000 HD
ENDBRANCH   7   8
ENDBRANCH   1   2
BRANCH   1  10
ATOM     10  CA  TYR B   1      -3.729 -15.205   6.125  0.00  0.00    +0.000 C 
BRANCH  10  11
ATOM     11  N   TYR B   1      -4.296 -13.978   6.677  0.00  0.00    +0.000 NA
ATOM     12  H   TYR B   1      -5.150 -13.741   6.172  0.00  0.00    +0.000 HD
ATOM     13  H   TYR B   1      -3.621 -13.219   6.581  0.00  0.00    +0.000 HD
ENDBRANCH  10  11
BRANCH  10  14
ATOM     14  C   TYR B   1      -4.723 -16.354   6.244  0.00  0.00    +0.000 C 
ATOM     15  OXT TYR B   1      -4.540 -17.384   5.588  0.00  0.00    +0.000 OA
BRANCH  14  16
ATOM     16  O   TYR B   1      -5.695 -16.272   6.999  0.00  0.00    +0.000 OA
ATOM     17  H   TYR B   1      -5.835 -15.492   7.498  0.00  0.00    +0.000 HD
ENDBRANCH  14  16
ENDBRANCH  10  14
ENDBRANCH   1  10
TORSDOF 6
