REMARK  Name = /storage/kiran-stuff/aaRS/phase2/energy_scoring/vina_182jobs/anc_prors_edit_TYR_TYR/ligand.h.pdb
REMARK  6 active torsions:
REMARK  status: ('A' for Active; 'I' for Inactive)
REMARK    1  A    between atoms: N_1  and  CA_2
REMARK    2  A    between atoms: CA_2  and  C_3
REMARK    3  A    between atoms: CA_2  and  CB_5
REMARK    4  A    between atoms: C_3  and  O_4
REMARK    5  A    between atoms: CB_5  and  CG_6
REMARK    6  A    between atoms: CZ_11  and  OH_12
REMARK                            x       y       z     vdW  Elec       q    Type
REMARK                         _______ _______ _______ _____ _____    ______ ____
ROOT
ATOM      1  CB  TYR B   1      -2.478 -16.068   6.732  0.00  0.00    +0.000 C 
ENDROOT
BRANCH   1   2
ATOM      2  CG  TYR B   1      -1.563 -14.929   6.442  0.00  0.00    +0.000 A 
ATOM      3  CD1 TYR B   1      -1.567 -13.792   7.255  0.00  0.00    +0.000 A 
ATOM      4  CD2 TYR B   1      -0.686 -14.967   5.370  0.00  0.00    +0.000 A 
ATOM      5  CE1 TYR B   1      -0.714 -12.723   6.994  0.00  0.00    +0.000 A 
ATOM      6  CE2 TYR B   1       0.169 -13.900   5.108  0.00  0.00    +0.000 A 
ATOM      7  CZ  TYR B   1       0.171 -12.769   5.911  0.00  0.00    +0.000 A 
BRANCH   7   8
ATOM      8  OH  TYR B   1       1.004 -11.735   5.659  0.00  0.00    +0.000 OA
ATOM      9  H   TYR B   1       1.593 -11.775   4.932  0.00  0.00    +0.000 HD
ENDBRANCH   7   8
ENDBRANCH   1   2
BRANCH   1  10
ATOM     10  CA  TYR B   1      -3.839 -15.930   6.042  0.00  0.00    +0.000 C 
BRANCH  10  11
ATOM     11  N   TYR B   1      -4.496 -14.683   6.422  0.00  0.00    +0.000 NA
ATOM     12  H   TYR B   1      -5.398 -14.616   5.950  0.00  0.00    +0.000 HD
ATOM     13  H   TYR B   1      -3.910 -13.893   6.150  0.00  0.00    +0.000 HD
ENDBRANCH  10  11
BRANCH  10  14
ATOM     14  C   TYR B   1      -4.701 -17.127   6.426  0.00  0.00    +0.000 C 
ATOM     15  OXT TYR B   1      -4.447 -18.235   5.944  0.00  0.00    +0.000 OA
BRANCH  14  16
ATOM     16  O   TYR B   1      -5.634 -17.003   7.222  0.00  0.00    +0.000 OA
ATOM     17  H   TYR B   1      -5.828 -16.163   7.589  0.00  0.00    +0.000 HD
ENDBRANCH  14  16
ENDBRANCH  10  14
ENDBRANCH   1  10
TORSDOF 6
