REMARK  Name = /storage/kiran-stuff/aaRS/phase2/energy_scoring/vina_182jobs/deep_thrrs_pro_PRO/ligand.h.pdb
REMARK  2 active torsions:
REMARK  status: ('A' for Active; 'I' for Inactive)
REMARK    1  A    between atoms: CA_2  and  C_3
REMARK    2  A    between atoms: C_3  and  O_4
REMARK                            x       y       z     vdW  Elec       q    Type
REMARK                         _______ _______ _______ _____ _____    ______ ____
ROOT
ATOM      1  N   PRO C   1      16.554  -4.220  -5.487  0.00  0.00    +0.000 NA
ATOM      2  CA  PRO C   1      17.818  -3.927  -4.863  0.00  0.00    +0.000 C 
ATOM      3  CB  PRO C   1      18.805  -4.700  -5.618  0.00  0.00    +0.000 C 
ATOM      4  CG  PRO C   1      18.084  -5.659  -6.404  0.00  0.00    +0.000 C 
ATOM      5  CD  PRO C   1      16.709  -5.230  -6.442  0.00  0.00    +0.000 C 
ATOM      6  H   PRO C   1      15.891  -4.528  -4.776  0.00  0.00    +0.000 HD
ENDROOT
BRANCH   2   7
ATOM      7  C   PRO C   1      18.089  -2.442  -4.900  0.00  0.00    +0.000 C 
ATOM      8  OXT PRO C   1      17.161  -1.689  -5.130  0.00  0.00    +0.000 OA
BRANCH   7   9
ATOM      9  O   PRO C   1      19.232  -2.025  -4.751  0.00  0.00    +0.000 OA
ATOM     10  H   PRO C   1      19.930  -2.625  -4.575  0.00  0.00    +0.000 HD
ENDBRANCH   7   9
ENDBRANCH   2   7
TORSDOF 2
