REMARK  Name = /storage/kiran-stuff/aaRS/phase2/energy_scoring/vina_182jobs/deep_thrrs_pro_PRO/ligand.h.pdb
REMARK  365 active torsions:
REMARK  status: ('A' for Active; 'I' for Inactive)
REMARK    1  A    between atoms: OP3_1  and  P_2
REMARK    2  A    between atoms: P_2  and  OP1_3
REMARK    3  A    between atoms: P_2  and  O5'_5
REMARK    4  A    between atoms: O5'_5  and  C5'_6
REMARK    5  A    between atoms: C5'_6  and  C4'_7
REMARK    6  A    between atoms: C3'_9  and  O3'_10
REMARK    7  A    between atoms: O3'_10  and  P_22
REMARK    8  A    between atoms: C2'_11  and  O2'_12
REMARK    9  A    between atoms: C1'_13  and  N1_14
REMARK   10  A    between atoms: P_22  and  OP1_23
REMARK   11  A    between atoms: P_22  and  O5'_25
REMARK   12  A    between atoms: O5'_25  and  C5'_26
REMARK   13  A    between atoms: C5'_26  and  C4'_27
REMARK   14  A    between atoms: C3'_29  and  O3'_30
REMARK   15  A    between atoms: O3'_30  and  P_42
REMARK   16  A    between atoms: C2'_31  and  O2'_32
REMARK   17  A    between atoms: C1'_33  and  N1_34
REMARK   18  A    between atoms: P_42  and  OP2_44
REMARK   19  A    between atoms: P_42  and  O5'_45
REMARK   20  A    between atoms: O5'_45  and  C5'_46
REMARK   21  A    between atoms: C5'_46  and  C4'_47
REMARK   22  A    between atoms: C3'_49  and  O3'_50
REMARK   23  A    between atoms: O3'_50  and  P_64
REMARK   24  A    between atoms: C2'_51  and  O2'_52
REMARK   25  A    between atoms: C1'_53  and  N9_54
REMARK   26  A    between atoms: P_64  and  OP2_66
REMARK   27  A    between atoms: P_64  and  O5'_67
REMARK   28  A    between atoms: O5'_67  and  C5'_68
REMARK   29  A    between atoms: C5'_68  and  C4'_69
REMARK   30  A    between atoms: C3'_71  and  O3'_72
REMARK   31  A    between atoms: O3'_72  and  P_86
REMARK   32  A    between atoms: C2'_73  and  O2'_74
REMARK   33  A    between atoms: C1'_75  and  N9_76
REMARK   34  A    between atoms: P_86  and  OP2_88
REMARK   35  A    between atoms: P_86  and  O5'_89
REMARK   36  A    between atoms: O5'_89  and  C5'_90
REMARK   37  A    between atoms: C5'_90  and  C4'_91
REMARK   38  A    between atoms: C3'_93  and  O3'_94
REMARK   39  A    between atoms: O3'_94  and  P_106
REMARK   40  A    between atoms: C2'_95  and  O2'_96
REMARK   41  A    between atoms: C1'_97  and  N1_98
REMARK   42  A    between atoms: P_106  and  OP2_108
REMARK   43  A    between atoms: P_106  and  O5'_109
REMARK   44  A    between atoms: O5'_109  and  C5'_110
REMARK   45  A    between atoms: C5'_110  and  C4'_111
REMARK   46  A    between atoms: C3'_113  and  O3'_114
REMARK   47  A    between atoms: O3'_114  and  P_128
REMARK   48  A    between atoms: C2'_115  and  O2'_116
REMARK   49  A    between atoms: C1'_117  and  N9_118
REMARK   50  A    between atoms: P_128  and  OP1_129
REMARK   51  A    between atoms: P_128  and  O5'_131
REMARK   52  A    between atoms: O5'_131  and  C5'_132
REMARK   53  A    between atoms: C5'_132  and  C4'_133
REMARK   54  A    between atoms: C3'_135  and  O3'_136
REMARK   55  A    between atoms: O3'_136  and  P_148
REMARK   56  A    between atoms: C2'_137  and  O2'_138
REMARK   57  A    between atoms: C1'_139  and  N1_140
REMARK   58  A    between atoms: P_148  and  OP1_149
REMARK   59  A    between atoms: P_148  and  O5'_151
REMARK   60  A    between atoms: O5'_151  and  C5'_152
REMARK   61  A    between atoms: C5'_152  and  C4'_153
REMARK   62  A    between atoms: C3'_155  and  O3'_156
REMARK   63  A    between atoms: O3'_156  and  P_168
REMARK   64  A    between atoms: C2'_157  and  O2'_158
REMARK   65  A    between atoms: C1'_159  and  N1_160
REMARK   66  A    between atoms: P_168  and  OP1_169
REMARK   67  A    between atoms: P_168  and  O5'_171
REMARK   68  A    between atoms: O5'_171  and  C5'_172
REMARK   69  A    between atoms: C5'_172  and  C4'_173
REMARK   70  A    between atoms: C1'_179  and  N9_180
REMARK   71  A    between atoms: C6_184  and  N6_185
REMARK   72  A    between atoms: P_190  and  OP1_191
REMARK   73  A    between atoms: C2'_199  and  O2'_200
REMARK   74  A    between atoms: C1'_201  and  N1_202
REMARK   75  A    between atoms: P_210  and  OP2_212
REMARK   76  A    between atoms: C2'_219  and  O2'_220
REMARK   77  A    between atoms: C1'_221  and  N1_222
REMARK   78  A    between atoms: P_230  and  OP2_232
REMARK   79  A    between atoms: C2'_239  and  O2'_240
REMARK   80  A    between atoms: C1'_241  and  N1_242
REMARK   81  A    between atoms: P_250  and  OP1_251
REMARK   82  A    between atoms: C2'_259  and  O2'_260
REMARK   83  A    between atoms: C1'_261  and  N1_262
REMARK   84  A    between atoms: P_270  and  OP1_271
REMARK   85  A    between atoms: C2'_279  and  O2'_280
REMARK   86  A    between atoms: C1'_281  and  N9_282
REMARK   87  A    between atoms: C6_286  and  N6_287
REMARK   88  A    between atoms: P_292  and  OP1_293
REMARK   89  A    between atoms: C2'_301  and  O2'_302
REMARK   90  A    between atoms: C1'_303  and  N1_304
REMARK   91  A    between atoms: P_312  and  OP2_314
REMARK   92  A    between atoms: C2'_321  and  O2'_322
REMARK   93  A    between atoms: C1'_323  and  N1_324
REMARK   94  A    between atoms: P_332  and  OP1_333
REMARK   95  A    between atoms: C2'_341  and  O2'_342
REMARK   96  A    between atoms: C1'_343  and  N1_344
REMARK   97  A    between atoms: P_352  and  OP1_353
REMARK   98  A    between atoms: C2'_361  and  O2'_362
REMARK   99  A    between atoms: C1'_363  and  N9_364
REMARK  100  A    between atoms: P_375  and  OP1_376
REMARK  101  A    between atoms: C2'_384  and  O2'_385
REMARK  102  A    between atoms: C1'_386  and  N9_387
REMARK  103  A    between atoms: C6_391  and  N6_392
REMARK  104  A    between atoms: P_397  and  OP1_398
REMARK  105  A    between atoms: C2'_406  and  O2'_407
REMARK  106  A    between atoms: C1'_408  and  N9_409
REMARK  107  A    between atoms: C6_413  and  N6_414
REMARK  108  A    between atoms: P_419  and  OP1_420
REMARK  109  A    between atoms: C2'_428  and  O2'_429
REMARK  110  A    between atoms: C1'_430  and  N9_431
REMARK  111  A    between atoms: C6_435  and  N6_436
REMARK  112  A    between atoms: P_441  and  OP2_443
REMARK  113  A    between atoms: C2'_450  and  O2'_451
REMARK  114  A    between atoms: C1'_452  and  N1_453
REMARK  115  A    between atoms: P_461  and  OP2_463
REMARK  116  A    between atoms: C2'_470  and  O2'_471
REMARK  117  A    between atoms: C1'_472  and  N1_473
REMARK  118  A    between atoms: P_481  and  OP2_483
REMARK  119  A    between atoms: C2'_490  and  O2'_491
REMARK  120  A    between atoms: C1'_492  and  N1_493
REMARK  121  A    between atoms: P_501  and  OP2_503
REMARK  122  A    between atoms: C2'_510  and  O2'_511
REMARK  123  A    between atoms: C1'_512  and  N1_513
REMARK  124  A    between atoms: P_521  and  OP2_523
REMARK  125  A    between atoms: C2'_530  and  O2'_531
REMARK  126  A    between atoms: C1'_532  and  N1_533
REMARK  127  A    between atoms: P_541  and  OP1_542
REMARK  128  A    between atoms: C2'_550  and  O2'_551
REMARK  129  A    between atoms: C1'_552  and  N1_553
REMARK  130  A    between atoms: P_561  and  OP1_562
REMARK  131  A    between atoms: C2'_570  and  O2'_571
REMARK  132  A    between atoms: C1'_572  and  N1_573
REMARK  133  A    between atoms: P_581  and  OP1_582
REMARK  134  A    between atoms: C2'_590  and  O2'_591
REMARK  135  A    between atoms: C1'_592  and  N9_593
REMARK  136  A    between atoms: C6_597  and  N6_598
REMARK  137  A    between atoms: P_603  and  OP1_604
REMARK  138  A    between atoms: C2'_612  and  O2'_613
REMARK  139  A    between atoms: C1'_614  and  N9_615
REMARK  140  A    between atoms: C6_619  and  N6_620
REMARK  141  A    between atoms: P_625  and  OP1_626
REMARK  142  A    between atoms: C2'_634  and  O2'_635
REMARK  143  A    between atoms: C1'_636  and  N9_637
REMARK  144  A    between atoms: C6_641  and  N6_642
REMARK  145  A    between atoms: P_647  and  OP1_648
REMARK  146  A    between atoms: C2'_656  and  O2'_657
REMARK  147  A    between atoms: C1'_658  and  N9_659
REMARK  148  A    between atoms: C6_663  and  N6_664
REMARK  149  A    between atoms: P_669  and  OP2_671
REMARK  150  A    between atoms: C2'_678  and  O2'_679
REMARK  151  A    between atoms: C1'_680  and  N1_681
REMARK  152  A    between atoms: P_689  and  OP2_691
REMARK  153  A    between atoms: C2'_698  and  O2'_699
REMARK  154  A    between atoms: C1'_700  and  N9_701
REMARK  155  A    between atoms: P_711  and  OP2_713
REMARK  156  A    between atoms: C2'_720  and  O2'_721
REMARK  157  A    between atoms: C1'_722  and  N9_723
REMARK  158  A    between atoms: P_733  and  OP2_735
REMARK  159  A    between atoms: C2'_742  and  O2'_743
REMARK  160  A    between atoms: C1'_744  and  N1_745
REMARK  161  A    between atoms: P_753  and  OP2_755
REMARK  162  A    between atoms: C2'_762  and  O2'_763
REMARK  163  A    between atoms: C1'_764  and  N9_765
REMARK  164  A    between atoms: P_775  and  OP1_776
REMARK  165  A    between atoms: C2'_784  and  O2'_785
REMARK  166  A    between atoms: C1'_786  and  N1_787
REMARK  167  A    between atoms: P_795  and  OP1_796
REMARK  168  A    between atoms: C2'_804  and  O2'_805
REMARK  169  A    between atoms: C1'_806  and  N1_807
REMARK  170  A    between atoms: P_815  and  OP2_817
REMARK  171  A    between atoms: C2'_824  and  O2'_825
REMARK  172  A    between atoms: C1'_826  and  N1_827
REMARK  173  A    between atoms: P_835  and  OP2_837
REMARK  174  A    between atoms: C2'_844  and  O2'_845
REMARK  175  A    between atoms: C1'_846  and  N1_847
REMARK  176  A    between atoms: P_855  and  OP2_857
REMARK  177  A    between atoms: C2'_864  and  O2'_865
REMARK  178  A    between atoms: C1'_866  and  N1_867
REMARK  179  A    between atoms: P_875  and  OP1_876
REMARK  180  A    between atoms: C2'_884  and  O2'_885
REMARK  181  A    between atoms: C1'_886  and  N9_887
REMARK  182  A    between atoms: C6_891  and  N6_892
REMARK  183  A    between atoms: P_897  and  OP2_899
REMARK  184  A    between atoms: C2'_906  and  O2'_907
REMARK  185  A    between atoms: C1'_908  and  N1_909
REMARK  186  A    between atoms: P_917  and  OP2_919
REMARK  187  A    between atoms: C2'_926  and  O2'_927
REMARK  188  A    between atoms: C1'_928  and  N1_929
REMARK  189  A    between atoms: P_937  and  OP2_939
REMARK  190  A    between atoms: C2'_946  and  O2'_947
REMARK  191  A    between atoms: C1'_948  and  N1_949
REMARK  192  A    between atoms: P_957  and  OP2_959
REMARK  193  A    between atoms: C2'_966  and  O2'_967
REMARK  194  A    between atoms: C1'_968  and  N1_969
REMARK  195  A    between atoms: P_977  and  OP2_979
REMARK  196  A    between atoms: C2'_986  and  O2'_987
REMARK  197  A    between atoms: C1'_988  and  N9_989
REMARK  198  A    between atoms: P_999  and  OP2_1001
REMARK  199  A    between atoms: C2'_1008  and  O2'_1009
REMARK  200  A    between atoms: C1'_1010  and  N1_1011
REMARK  201  A    between atoms: P_1019  and  OP2_1021
REMARK  202  A    between atoms: C2'_1028  and  O2'_1029
REMARK  203  A    between atoms: C1'_1030  and  N1_1031
REMARK  204  A    between atoms: P_1039  and  OP2_1041
REMARK  205  A    between atoms: C2'_1048  and  O2'_1049
REMARK  206  A    between atoms: C1'_1050  and  N1_1051
REMARK  207  A    between atoms: P_1059  and  OP2_1061
REMARK  208  A    between atoms: C2'_1068  and  O2'_1069
REMARK  209  A    between atoms: C1'_1070  and  N1_1071
REMARK  210  A    between atoms: P_1079  and  OP1_1080
REMARK  211  A    between atoms: C2'_1088  and  O2'_1089
REMARK  212  A    between atoms: C1'_1090  and  N9_1091
REMARK  213  A    between atoms: C6_1095  and  N6_1096
REMARK  214  A    between atoms: P_1101  and  OP1_1102
REMARK  215  A    between atoms: C2'_1110  and  O2'_1111
REMARK  216  A    between atoms: C1'_1112  and  N9_1113
REMARK  217  A    between atoms: C6_1117  and  N6_1118
REMARK  218  A    between atoms: P_1123  and  OP1_1124
REMARK  219  A    between atoms: C2'_1132  and  O2'_1133
REMARK  220  A    between atoms: C1'_1134  and  N9_1135
REMARK  221  A    between atoms: C6_1139  and  N6_1140
REMARK  222  A    between atoms: P_1145  and  OP1_1146
REMARK  223  A    between atoms: C2'_1154  and  O2'_1155
REMARK  224  A    between atoms: C1'_1156  and  N9_1157
REMARK  225  A    between atoms: C6_1161  and  N6_1162
REMARK  226  A    between atoms: P_1167  and  OP1_1168
REMARK  227  A    between atoms: C2'_1176  and  O2'_1177
REMARK  228  A    between atoms: C1'_1178  and  N9_1179
REMARK  229  A    between atoms: C6_1183  and  N6_1184
REMARK  230  A    between atoms: P_1189  and  OP1_1190
REMARK  231  A    between atoms: C2'_1198  and  O2'_1199
REMARK  232  A    between atoms: C1'_1200  and  N1_1201
REMARK  233  A    between atoms: P_1209  and  OP1_1210
REMARK  234  A    between atoms: C2'_1218  and  O2'_1219
REMARK  235  A    between atoms: C1'_1220  and  N9_1221
REMARK  236  A    between atoms: P_1231  and  OP2_1233
REMARK  237  A    between atoms: C2'_1240  and  O2'_1241
REMARK  238  A    between atoms: C1'_1242  and  N9_1243
REMARK  239  A    between atoms: P_1254  and  OP1_1255
REMARK  240  A    between atoms: C3'_1261  and  O3'_1262
REMARK  241  A    between atoms: O3'_1262  and  P_1276
REMARK  242  A    between atoms: C2'_1263  and  O2'_1264
REMARK  243  A    between atoms: P_1276  and  OP2_1278
REMARK  244  A    between atoms: P_1276  and  O5'_1279
REMARK  245  A    between atoms: O5'_1279  and  C5'_1280
REMARK  246  A    between atoms: C5'_1280  and  C4'_1281
REMARK  247  A    between atoms: C3'_1283  and  O3'_1284
REMARK  248  A    between atoms: O3'_1284  and  P_1296
REMARK  249  A    between atoms: C2'_1285  and  O2'_1286
REMARK  250  A    between atoms: C1'_1287  and  N1_1288
REMARK  251  A    between atoms: P_1296  and  OP2_1298
REMARK  252  A    between atoms: P_1296  and  O5'_1299
REMARK  253  A    between atoms: O5'_1299  and  C5'_1300
REMARK  254  A    between atoms: C5'_1300  and  C4'_1301
REMARK  255  A    between atoms: C3'_1303  and  O3'_1304
REMARK  256  A    between atoms: O3'_1304  and  P_1316
REMARK  257  A    between atoms: C2'_1305  and  O2'_1306
REMARK  258  A    between atoms: C1'_1307  and  N1_1308
REMARK  259  A    between atoms: P_1316  and  OP2_1318
REMARK  260  A    between atoms: P_1316  and  O5'_1319
REMARK  261  A    between atoms: O5'_1319  and  C5'_1320
REMARK  262  A    between atoms: C5'_1320  and  C4'_1321
REMARK  263  A    between atoms: C3'_1323  and  O3'_1324
REMARK  264  A    between atoms: O3'_1324  and  P_1338
REMARK  265  A    between atoms: C2'_1325  and  O2'_1326
REMARK  266  A    between atoms: C1'_1327  and  N9_1328
REMARK  267  A    between atoms: P_1338  and  OP2_1340
REMARK  268  A    between atoms: P_1338  and  O5'_1341
REMARK  269  A    between atoms: O5'_1341  and  C5'_1342
REMARK  270  A    between atoms: C5'_1342  and  C4'_1343
REMARK  271  A    between atoms: C3'_1345  and  O3'_1346
REMARK  272  A    between atoms: O3'_1346  and  P_1358
REMARK  273  A    between atoms: C2'_1347  and  O2'_1348
REMARK  274  A    between atoms: C1'_1349  and  N1_1350
REMARK  275  A    between atoms: P_1358  and  OP2_1360
REMARK  276  A    between atoms: P_1358  and  O5'_1361
REMARK  277  A    between atoms: O5'_1361  and  C5'_1362
REMARK  278  A    between atoms: C5'_1362  and  C4'_1363
REMARK  279  A    between atoms: C3'_1365  and  O3'_1366
REMARK  280  A    between atoms: O3'_1366  and  P_1380
REMARK  281  A    between atoms: C2'_1367  and  O2'_1368
REMARK  282  A    between atoms: C1'_1369  and  N9_1370
REMARK  283  A    between atoms: P_1380  and  OP1_1381
REMARK  284  A    between atoms: P_1380  and  O5'_1383
REMARK  285  A    between atoms: O5'_1383  and  C5'_1384
REMARK  286  A    between atoms: C5'_1384  and  C4'_1385
REMARK  287  A    between atoms: C3'_1387  and  O3'_1388
REMARK  288  A    between atoms: O3'_1388  and  P_1402
REMARK  289  A    between atoms: C2'_1389  and  O2'_1390
REMARK  290  A    between atoms: C1'_1391  and  N9_1392
REMARK  291  A    between atoms: C6_1396  and  N6_1397
REMARK  292  A    between atoms: P_1402  and  OP1_1403
REMARK  293  A    between atoms: P_1402  and  O5'_1405
REMARK  294  A    between atoms: O5'_1405  and  C5'_1406
REMARK  295  A    between atoms: C5'_1406  and  C4'_1407
REMARK  296  A    between atoms: C3'_1409  and  O3'_1410
REMARK  297  A    between atoms: O3'_1410  and  P_1424
REMARK  298  A    between atoms: C2'_1411  and  O2'_1412
REMARK  299  A    between atoms: C1'_1413  and  N9_1414
REMARK  300  A    between atoms: C6_1418  and  N6_1419
REMARK  301  A    between atoms: P_1424  and  OP1_1425
REMARK  302  A    between atoms: P_1424  and  O5'_1427
REMARK  303  A    between atoms: O5'_1427  and  C5'_1428
REMARK  304  A    between atoms: C5'_1428  and  C4'_1429
REMARK  305  A    between atoms: C3'_1431  and  O3'_1432
REMARK  306  A    between atoms: O3'_1432  and  P_1446
REMARK  307  A    between atoms: C2'_1433  and  O2'_1434
REMARK  308  A    between atoms: C1'_1435  and  N9_1436
REMARK  309  A    between atoms: C6_1440  and  N6_1441
REMARK  310  A    between atoms: P_1446  and  OP2_1448
REMARK  311  A    between atoms: P_1446  and  O5'_1449
REMARK  312  A    between atoms: O5'_1449  and  C5'_1450
REMARK  313  A    between atoms: C5'_1450  and  C4'_1451
REMARK  314  A    between atoms: C3'_1453  and  O3'_1454
REMARK  315  A    between atoms: O3'_1454  and  P_1468
REMARK  316  A    between atoms: C2'_1455  and  O2'_1456
REMARK  317  A    between atoms: C1'_1457  and  N9_1458
REMARK  318  A    between atoms: P_1468  and  OP2_1470
REMARK  319  A    between atoms: P_1468  and  O5'_1471
REMARK  320  A    between atoms: O5'_1471  and  C5'_1472
REMARK  321  A    between atoms: C5'_1472  and  C4'_1473
REMARK  322  A    between atoms: C3'_1475  and  O3'_1476
REMARK  323  A    between atoms: O3'_1476  and  P_1488
REMARK  324  A    between atoms: C2'_1477  and  O2'_1478
REMARK  325  A    between atoms: C1'_1479  and  N1_1480
REMARK  326  A    between atoms: P_1488  and  OP2_1490
REMARK  327  A    between atoms: P_1488  and  O5'_1491
REMARK  328  A    between atoms: O5'_1491  and  C5'_1492
REMARK  329  A    between atoms: C5'_1492  and  C4'_1493
REMARK  330  A    between atoms: C3'_1495  and  O3'_1496
REMARK  331  A    between atoms: O3'_1496  and  P_1508
REMARK  332  A    between atoms: C2'_1497  and  O2'_1498
REMARK  333  A    between atoms: C1'_1499  and  N1_1500
REMARK  334  A    between atoms: P_1508  and  OP2_1510
REMARK  335  A    between atoms: P_1508  and  O5'_1511
REMARK  336  A    between atoms: O5'_1511  and  C5'_1512
REMARK  337  A    between atoms: C5'_1512  and  C4'_1513
REMARK  338  A    between atoms: C3'_1515  and  O3'_1516
REMARK  339  A    between atoms: O3'_1516  and  P_1528
REMARK  340  A    between atoms: C2'_1517  and  O2'_1518
REMARK  341  A    between atoms: C1'_1519  and  N1_1520
REMARK  342  A    between atoms: P_1528  and  OP2_1530
REMARK  343  A    between atoms: P_1528  and  O5'_1531
REMARK  344  A    between atoms: O5'_1531  and  C5'_1532
REMARK  345  A    between atoms: C5'_1532  and  C4'_1533
REMARK  346  A    between atoms: C3'_1535  and  O3'_1536
REMARK  347  A    between atoms: O3'_1536  and  P_1548
REMARK  348  A    between atoms: C2'_1537  and  O2'_1538
REMARK  349  A    between atoms: C1'_1539  and  N1_1540
REMARK  350  A    between atoms: P_1548  and  OP2_1550
REMARK  351  A    between atoms: P_1548  and  O5'_1551
REMARK  352  A    between atoms: O5'_1551  and  C5'_1552
REMARK  353  A    between atoms: C5'_1552  and  C4'_1553
REMARK  354  A    between atoms: C3'_1555  and  O3'_1556
REMARK  355  A    between atoms: O3'_1556  and  P_1568
REMARK  356  A    between atoms: C2'_1557  and  O2'_1558
REMARK  357  A    between atoms: C1'_1559  and  N1_1560
REMARK  358  A    between atoms: P_1568  and  OP2_1570
REMARK  359  A    between atoms: P_1568  and  O5'_1571
REMARK  360  A    between atoms: O5'_1571  and  C5'_1572
REMARK  361  A    between atoms: C5'_1572  and  C4'_1573
REMARK  362  A    between atoms: C3'_1575  and  O3'_1576
REMARK  363  A    between atoms: C2'_1577  and  O2'_1578
REMARK  364  A    between atoms: C1'_1579  and  N9_1580
REMARK  365  A    between atoms: C6_1584  and  N6_1585
REMARK                            x       y       z     vdW  Elec       q    Type
REMARK                         _______ _______ _______ _____ _____    ______ ____
ROOT
ATOM      1  C4' A   B   9     -20.383   6.822  -8.667  0.00  0.00    +0.000 C 
ATOM      2  O4' A   B   9     -21.375   5.976  -9.295  0.00  0.00    +0.000 OA
ATOM      3  C3' A   B   9     -19.092   6.008  -8.671  0.00  0.00    +0.000 C 
ATOM      4  O3' A   B   9     -19.039   5.216  -7.485  0.00  0.00    +0.000 OA
ATOM      5  C2' A   B   9     -19.269   5.103  -9.874  0.00  0.00    +0.000 C 
ATOM      6  O2' A   B   9     -18.504   3.905  -9.839  0.00  0.00    +0.000 OA
ATOM      7  C1' A   B   9     -20.762   4.803  -9.798  0.00  0.00    +0.000 C 
ATOM      8  P   U   B  10     -18.241   5.633  -6.245  0.00  0.00    +0.000 P 
ATOM      9  OP2 U   B  10     -16.994   6.342  -6.634  0.00  0.00    +0.000 OA
ATOM     10  O5' U   B  10     -17.859   4.197  -5.668  0.00  0.00    +0.000 OA
ATOM     11  C5' U   B  10     -17.454   3.128  -6.517  0.00  0.00    +0.000 C 
ATOM     12  C4' U   B  10     -16.175   2.514  -6.030  0.00  0.00    +0.000 C 
ATOM     13  O4' U   B  10     -16.211   2.428  -4.577  0.00  0.00    +0.000 OA
ATOM     14  C3' U   B  10     -15.933   1.092  -6.546  0.00  0.00    +0.000 C 
ATOM     15  O3' U   B  10     -14.550   0.901  -6.803  0.00  0.00    +0.000 OA
ATOM     16  C2' U   B  10     -16.371   0.232  -5.362  0.00  0.00    +0.000 C 
ATOM     17  C1' U   B  10     -15.967   1.101  -4.178  0.00  0.00    +0.000 C 
ATOM     18  P   U   B  11     -14.125  -0.100  -8.002  0.00  0.00    +0.000 P 
ATOM     19  OP1 U   B  11     -13.421   0.710  -9.036  0.00  0.00    +0.000 OA
ATOM     20  O5' U   B  11     -13.047  -1.051  -7.311  0.00  0.00    +0.000 OA
ATOM     21  C5' U   B  11     -13.458  -2.186  -6.556  0.00  0.00    +0.000 C 
ATOM     22  C4' U   B  11     -12.480  -2.465  -5.444  0.00  0.00    +0.000 C 
ATOM     23  O4' U   B  11     -12.816  -1.669  -4.277  0.00  0.00    +0.000 OA
ATOM     24  C3' U   B  11     -12.473  -3.890  -4.923  0.00  0.00    +0.000 C 
ATOM     25  O3' U   B  11     -11.730  -4.768  -5.756  0.00  0.00    +0.000 OA
ATOM     26  C2' U   B  11     -11.870  -3.711  -3.533  0.00  0.00    +0.000 C 
ATOM     27  C1' U   B  11     -12.520  -2.394  -3.101  0.00  0.00    +0.000 C 
ATOM     28  P   U   B  12     -12.193  -6.302  -5.880  0.00  0.00    +0.000 P 
ATOM     29  OP1 U   B  12     -11.394  -6.921  -6.967  0.00  0.00    +0.000 OA
ATOM     30  O5' U   B  12     -11.719  -6.930  -4.496  0.00  0.00    +0.000 OA
ATOM     31  C5' U   B  12     -10.343  -6.958  -4.136  0.00  0.00    +0.000 C 
ATOM     32  C4' U   B  12     -10.154  -7.311  -2.683  0.00  0.00    +0.000 C 
ATOM     33  O4' U   B  12     -10.795  -6.322  -1.835  0.00  0.00    +0.000 OA
ATOM     34  C3' U   B  12     -10.768  -8.618  -2.233  0.00  0.00    +0.000 C 
ATOM     35  O3' U   B  12      -9.996  -9.750  -2.604  0.00  0.00    +0.000 OA
ATOM     36  C2' U   B  12     -10.860  -8.412  -0.726  0.00  0.00    +0.000 C 
ATOM     37  C1' U   B  12     -11.267  -6.942  -0.654  0.00  0.00    +0.000 C 
ATOM     38  P   C   B  13     -10.729 -11.146  -2.926  0.00  0.00    +0.000 P 
ATOM     39  OP2 C   B  13     -12.005 -10.874  -3.635  0.00  0.00    +0.000 OA
ATOM     40  O5' C   B  13     -11.087 -11.711  -1.477  0.00  0.00    +0.000 OA
ATOM     41  C5' C   B  13     -10.063 -12.031  -0.547  0.00  0.00    +0.000 C 
ATOM     42  C4' C   B  13     -10.631 -12.284   0.827  0.00  0.00    +0.000 C 
ATOM     43  O4' C   B  13     -11.321 -11.100   1.305  0.00  0.00    +0.000 OA
ATOM     44  C3' C   B  13     -11.677 -13.374   0.925  0.00  0.00    +0.000 C 
ATOM     45  O3' C   B  13     -11.120 -14.682   0.937  0.00  0.00    +0.000 OA
ATOM     46  C2' C   B  13     -12.386 -13.007   2.219  0.00  0.00    +0.000 C 
ATOM     47  C1' C   B  13     -12.412 -11.484   2.120  0.00  0.00    +0.000 C 
ATOM     48  P   A   B  14     -11.911 -15.899   0.252  0.00  0.00    +0.000 P 
ATOM     49  OP2 A   B  14     -12.315 -15.473  -1.109  0.00  0.00    +0.000 OA
ATOM     50  O5' A   B  14     -13.238 -16.038   1.132  0.00  0.00    +0.000 OA
ATOM     51  C5' A   B  14     -13.175 -16.490   2.472  0.00  0.00    +0.000 C 
ATOM     52  C4' A   B  14     -14.525 -16.387   3.143  0.00  0.00    +0.000 C 
ATOM     53  O4' A   B  14     -14.986 -15.012   3.121  0.00  0.00    +0.000 OA
ATOM     54  C3' A   B  14     -15.655 -17.161   2.488  0.00  0.00    +0.000 C 
ATOM     55  O3' A   B  14     -15.643 -18.543   2.818  0.00  0.00    +0.000 OA
ATOM     56  C2' A   B  14     -16.884 -16.428   3.011  0.00  0.00    +0.000 C 
ATOM     57  C1' A   B  14     -16.395 -14.980   3.001  0.00  0.00    +0.000 C 
ATOM     58  P   U   B  15     -15.708 -19.677   1.714  0.00  0.00    +0.000 P 
ATOM     59  OP2 U   B  15     -15.127 -19.133   0.458  0.00  0.00    +0.000 OA
ATOM     60  O5' U   B  15     -17.275 -19.902   1.492  0.00  0.00    +0.000 OA
ATOM     61  C5' U   B  15     -17.935 -19.344   0.379  0.00  0.00    +0.000 C 
ATOM     62  C4' U   B  15     -19.198 -20.103   0.007  0.00  0.00    +0.000 C 
ATOM     63  O4' U   B  15     -18.945 -21.547  -0.040  0.00  0.00    +0.000 OA
ATOM     64  C3' U   B  15     -20.367 -19.915   0.968  0.00  0.00    +0.000 C 
ATOM     65  O3' U   B  15     -21.578 -19.811   0.235  0.00  0.00    +0.000 OA
ATOM     66  C2' U   B  15     -20.368 -21.212   1.775  0.00  0.00    +0.000 C 
ATOM     67  C1' U   B  15     -19.898 -22.215   0.735  0.00  0.00    +0.000 C 
ATOM     68  P   C   B  16     -22.229 -18.356  -0.027  0.00  0.00    +0.000 P 
ATOM     69  OP1 C   B  16     -22.881 -18.349  -1.360  0.00  0.00    +0.000 OA
ATOM     70  O5' C   B  16     -23.363 -18.276   1.090  0.00  0.00    +0.000 OA
ATOM     71  C5' C   B  16     -24.646 -18.845   0.863  0.00  0.00    +0.000 C 
ATOM     72  C4' C   B  16     -25.386 -19.047   2.163  0.00  0.00    +0.000 C 
ATOM     73  O4' C   B  16     -24.683 -20.017   2.984  0.00  0.00    +0.000 OA
ATOM     74  C3' C   B  16     -25.506 -17.823   3.048  0.00  0.00    +0.000 C 
ATOM     75  O3' C   B  16     -26.574 -16.973   2.655  0.00  0.00    +0.000 OA
ATOM     76  C2' C   B  16     -25.714 -18.442   4.427  0.00  0.00    +0.000 C 
ATOM     77  C1' C   B  16     -24.826 -19.686   4.350  0.00  0.00    +0.000 C 
ATOM     78  P   C   B  17     -26.428 -15.379   2.759  0.00  0.00    +0.000 P 
ATOM     79  OP2 C   B  17     -25.112 -14.987   2.188  0.00  0.00    +0.000 OA
ATOM     80  O5' C   B  17     -26.379 -15.119   4.332  0.00  0.00    +0.000 OA
ATOM     81  C5' C   B  17     -27.525 -15.340   5.150  0.00  0.00    +0.000 C 
ATOM     82  C4' C   B  17     -27.171 -15.249   6.616  0.00  0.00    +0.000 C 
ATOM     83  O4' C   B  17     -26.175 -16.255   6.944  0.00  0.00    +0.000 OA
ATOM     84  C3' C   B  17     -26.535 -13.945   7.062  0.00  0.00    +0.000 C 
ATOM     85  O3' C   B  17     -27.488 -12.915   7.285  0.00  0.00    +0.000 OA
ATOM     86  C2' C   B  17     -25.799 -14.372   8.330  0.00  0.00    +0.000 C 
ATOM     87  C1' C   B  17     -25.298 -15.760   7.937  0.00  0.00    +0.000 C 
ATOM     88  P   G   B  18     -27.294 -11.462   6.632  0.00  0.00    +0.000 P 
ATOM     89  OP2 G   B  18     -27.713 -11.524   5.216  0.00  0.00    +0.000 OA
ATOM     90  O5' G   B  18     -25.714 -11.241   6.652  0.00  0.00    +0.000 OA
ATOM     91  C5' G   B  18     -25.082 -10.520   7.701  0.00  0.00    +0.000 C 
ATOM     92  C4' G   B  18     -23.758 -11.139   8.083  0.00  0.00    +0.000 C 
ATOM     93  O4' G   B  18     -23.331 -12.085   7.064  0.00  0.00    +0.000 OA
ATOM     94  C3' G   B  18     -22.584 -10.183   8.205  0.00  0.00    +0.000 C 
ATOM     95  O3' G   B  18     -22.569  -9.497   9.446  0.00  0.00    +0.000 OA
ATOM     96  C2' G   B  18     -21.395 -11.108   8.002  0.00  0.00    +0.000 C 
ATOM     97  C1' G   B  18     -21.930 -12.039   6.913  0.00  0.00    +0.000 C 
ATOM     98  P   A   B  19     -22.048  -7.990   9.520  0.00  0.00    +0.000 P 
ATOM     99  OP2 A   B  19     -22.564  -7.244   8.336  0.00  0.00    +0.000 OA
ATOM    100  O5' A   B  19     -20.465  -8.140   9.364  0.00  0.00    +0.000 OA
ATOM    101  C5' A   B  19     -19.699  -8.834  10.344  0.00  0.00    +0.000 C 
ATOM    102  C4' A   B  19     -18.242  -8.912   9.948  0.00  0.00    +0.000 C 
ATOM    103  O4' A   B  19     -18.104  -9.671   8.716  0.00  0.00    +0.000 OA
ATOM    104  C3' A   B  19     -17.576  -7.586   9.633  0.00  0.00    +0.000 C 
ATOM    105  O3' A   B  19     -17.182  -6.882  10.802  0.00  0.00    +0.000 OA
ATOM    106  C2' A   B  19     -16.407  -8.020   8.761  0.00  0.00    +0.000 C 
ATOM    107  C1' A   B  19     -17.049  -9.134   7.937  0.00  0.00    +0.000 C 
ATOM    108  P   A   B  20     -17.155  -5.273  10.798  0.00  0.00    +0.000 P 
ATOM    109  OP2 A   B  20     -18.298  -4.765   9.990  0.00  0.00    +0.000 OA
ATOM    110  O5' A   B  20     -15.809  -4.940  10.006  0.00  0.00    +0.000 OA
ATOM    111  C5' A   B  20     -14.548  -5.353  10.517  0.00  0.00    +0.000 C 
ATOM    112  C4' A   B  20     -13.461  -5.203   9.477  0.00  0.00    +0.000 C 
ATOM    113  O4' A   B  20     -13.783  -6.000   8.306  0.00  0.00    +0.000 OA
ATOM    114  C3' A   B  20     -13.269  -3.804   8.920  0.00  0.00    +0.000 C 
ATOM    115  O3' A   B  20     -12.513  -2.968   9.782  0.00  0.00    +0.000 OA
ATOM    116  C2' A   B  20     -12.575  -4.091   7.596  0.00  0.00    +0.000 C 
ATOM    117  C1' A   B  20     -13.312  -5.350   7.140  0.00  0.00    +0.000 C 
ATOM    118  P   A   B  21     -12.804  -1.387   9.826  0.00  0.00    +0.000 P 
ATOM    119  OP2 A   B  21     -14.268  -1.159   9.742  0.00  0.00    +0.000 OA
ATOM    120  O5' A   B  21     -12.147  -0.858   8.469  0.00  0.00    +0.000 OA
ATOM    121  C5' A   B  21     -10.752  -0.991   8.234  0.00  0.00    +0.000 C 
ATOM    122  C4' A   B  21     -10.418  -0.732   6.784  0.00  0.00    +0.000 C 
ATOM    123  O4' A   B  21     -11.118  -1.682   5.940  0.00  0.00    +0.000 OA
ATOM    124  C3' A   B  21     -10.843   0.620   6.243  0.00  0.00    +0.000 C 
ATOM    125  O3' A   B  21      -9.947   1.661   6.595  0.00  0.00    +0.000 OA
ATOM    126  C2' A   B  21     -10.895   0.351   4.745  0.00  0.00    +0.000 C 
ATOM    127  C1' A   B  21     -11.475  -1.065   4.719  0.00  0.00    +0.000 C 
ATOM    128  P   C   B  22     -10.510   3.134   6.891  0.00  0.00    +0.000 P 
ATOM    129  OP1 C   B  22      -9.386   3.936   7.440  0.00  0.00    +0.000 OA
ATOM    130  O5' C   B  22     -10.858   3.695   5.443  0.00  0.00    +0.000 OA
ATOM    131  C5' C   B  22      -9.850   3.854   4.456  0.00  0.00    +0.000 C 
ATOM    132  C4' C   B  22     -10.450   4.067   3.091  0.00  0.00    +0.000 C 
ATOM    133  O4' C   B  22     -11.232   2.906   2.707  0.00  0.00    +0.000 OA
ATOM    134  C3' C   B  22     -11.429   5.215   2.973  0.00  0.00    +0.000 C 
ATOM    135  O3' C   B  22     -10.798   6.481   2.871  0.00  0.00    +0.000 OA
ATOM    136  C2' C   B  22     -12.209   4.825   1.725  0.00  0.00    +0.000 C 
ATOM    137  C1' C   B  22     -12.329   3.312   1.913  0.00  0.00    +0.000 C 
ATOM    138  P   U   B  23     -11.517   7.775   3.478  0.00  0.00    +0.000 P 
ATOM    139  OP1 U   B  23     -10.545   8.894   3.419  0.00  0.00    +0.000 OA
ATOM    140  O5' U   B  23     -12.682   8.069   2.433  0.00  0.00    +0.000 OA
ATOM    141  C5' U   B  23     -12.382   8.408   1.086  0.00  0.00    +0.000 C 
ATOM    142  C4' U   B  23     -13.630   8.458   0.241  0.00  0.00    +0.000 C 
ATOM    143  O4' U   B  23     -14.243   7.143   0.179  0.00  0.00    +0.000 OA
ATOM    144  C3' U   B  23     -14.743   9.347   0.752  0.00  0.00    +0.000 C 
ATOM    145  O3' U   B  23     -14.518  10.723   0.485  0.00  0.00    +0.000 OA
ATOM    146  C2' U   B  23     -15.950   8.782   0.022  0.00  0.00    +0.000 C 
ATOM    147  C1' U   B  23     -15.647   7.281   0.066  0.00  0.00    +0.000 C 
ATOM    148  P   U   B  24     -15.123  11.822   1.494  0.00  0.00    +0.000 P 
ATOM    149  OP1 U   B  24     -14.562  13.135   1.092  0.00  0.00    +0.000 OA
ATOM    150  O5' U   B  24     -16.681  11.818   1.161  0.00  0.00    +0.000 OA
ATOM    151  C5' U   B  24     -17.158  12.195  -0.125  0.00  0.00    +0.000 C 
ATOM    152  C4' U   B  24     -18.636  11.923  -0.266  0.00  0.00    +0.000 C 
ATOM    153  O4' U   B  24     -18.892  10.500  -0.135  0.00  0.00    +0.000 OA
ATOM    154  C3' U   B  24     -19.525  12.550   0.786  0.00  0.00    +0.000 C 
ATOM    155  O3' U   B  24     -19.780  13.925   0.534  0.00  0.00    +0.000 OA
ATOM    156  C2' U   B  24     -20.771  11.681   0.707  0.00  0.00    +0.000 C 
ATOM    157  C1' U   B  24     -20.157  10.295   0.469  0.00  0.00    +0.000 C 
ATOM    158  P   U   B  25     -19.987  14.927   1.780  0.00  0.00    +0.000 P 
ATOM    159  OP1 U   B  25     -19.995  16.308   1.234  0.00  0.00    +0.000 OA
ATOM    160  O5' U   B  25     -21.454  14.584   2.304  0.00  0.00    +0.000 OA
ATOM    161  C5' U   B  25     -22.597  14.798   1.484  0.00  0.00    +0.000 C 
ATOM    162  C4' U   B  25     -23.827  14.153   2.074  0.00  0.00    +0.000 C 
ATOM    163  O4' U   B  25     -23.642  12.711   2.143  0.00  0.00    +0.000 OA
ATOM    164  C3' U   B  25     -24.161  14.544   3.498  0.00  0.00    +0.000 C 
ATOM    165  O3' U   B  25     -24.815  15.801   3.584  0.00  0.00    +0.000 OA
ATOM    166  C2' U   B  25     -25.027  13.379   3.950  0.00  0.00    +0.000 C 
ATOM    167  C1' U   B  25     -24.315  12.199   3.279  0.00  0.00    +0.000 C 
ATOM    168  P   U   B  26     -24.582  16.731   4.879  0.00  0.00    +0.000 P 
ATOM    169  OP1 U   B  26     -25.232  18.037   4.613  0.00  0.00    +0.000 OA
ATOM    170  O5' U   B  26     -25.400  15.986   6.029  0.00  0.00    +0.000 OA
ATOM    171  C5' U   B  26     -26.812  15.846   5.951  0.00  0.00    +0.000 C 
ATOM    172  C4' U   B  26     -27.334  14.899   7.006  0.00  0.00    +0.000 C 
ATOM    173  O4' U   B  26     -26.769  13.573   6.807  0.00  0.00    +0.000 OA
ATOM    174  C3' U   B  26     -26.971  15.234   8.437  0.00  0.00    +0.000 C 
ATOM    175  O3' U   B  26     -27.782  16.261   8.985  0.00  0.00    +0.000 OA
ATOM    176  C2' U   B  26     -27.149  13.890   9.128  0.00  0.00    +0.000 C 
ATOM    177  C1' U   B  26     -26.605  12.933   8.061  0.00  0.00    +0.000 C 
ATOM    178  P   U   B  27     -27.182  17.256  10.101  0.00  0.00    +0.000 P 
ATOM    179  OP2 U   B  27     -25.794  17.613   9.713  0.00  0.00    +0.000 OA
ATOM    180  O5' U   B  27     -27.109  16.342  11.409  0.00  0.00    +0.000 OA
ATOM    181  C5' U   B  27     -28.290  15.819  12.006  0.00  0.00    +0.000 C 
ATOM    182  C4' U   B  27     -27.966  14.808  13.082  0.00  0.00    +0.000 C 
ATOM    183  O4' U   B  27     -27.250  13.679  12.506  0.00  0.00    +0.000 OA
ATOM    184  C3' U   B  27     -27.053  15.286  14.191  0.00  0.00    +0.000 C 
ATOM    185  O3' U   B  27     -27.731  16.073  15.159  0.00  0.00    +0.000 OA
ATOM    186  C2' U   B  27     -26.519  13.973  14.744  0.00  0.00    +0.000 C 
ATOM    187  C1' U   B  27     -26.337  13.160  13.458  0.00  0.00    +0.000 C 
ATOM    188  P   U   B  28     -26.957  17.251  15.935  0.00  0.00    +0.000 P 
ATOM    189  OP2 U   B  28     -26.110  17.976  14.950  0.00  0.00    +0.000 OA
ATOM    190  O5' U   B  28     -25.990  16.463  16.933  0.00  0.00    +0.000 OA
ATOM    191  C5' U   B  28     -26.518  15.657  17.979  0.00  0.00    +0.000 C 
ATOM    192  C4' U   B  28     -25.443  14.806  18.617  0.00  0.00    +0.000 C 
ATOM    193  O4' U   B  28     -24.855  13.918  17.625  0.00  0.00    +0.000 OA
ATOM    194  C3' U   B  28     -24.253  15.550  19.183  0.00  0.00    +0.000 C 
ATOM    195  O3' U   B  28     -24.521  16.138  20.448  0.00  0.00    +0.000 OA
ATOM    196  C2' U   B  28     -23.198  14.452  19.235  0.00  0.00    +0.000 C 
ATOM    197  C1' U   B  28     -23.489  13.699  17.935  0.00  0.00    +0.000 C 
ATOM    198  P   A   B  29     -23.733  17.470  20.902  0.00  0.00    +0.000 P 
ATOM    199  OP2 A   B  29     -23.614  18.372  19.724  0.00  0.00    +0.000 OA
ATOM    200  O5' A   B  29     -22.271  16.926  21.253  0.00  0.00    +0.000 OA
ATOM    201  C5' A   B  29     -22.072  16.029  22.339  0.00  0.00    +0.000 C 
ATOM    202  C4' A   B  29     -20.665  15.470  22.337  0.00  0.00    +0.000 C 
ATOM    203  O4' A   B  29     -20.424  14.739  21.106  0.00  0.00    +0.000 OA
ATOM    204  C3' A   B  29     -19.542  16.488  22.375  0.00  0.00    +0.000 C 
ATOM    205  O3' A   B  29     -19.311  17.003  23.680  0.00  0.00    +0.000 OA
ATOM    206  C2' A   B  29     -18.371  15.686  21.824  0.00  0.00    +0.000 C 
ATOM    207  C1' A   B  29     -19.061  14.864  20.735  0.00  0.00    +0.000 C 
ATOM    208  P   A   B  30     -18.741  18.491  23.881  0.00  0.00    +0.000 P 
ATOM    209  OP2 A   B  30     -19.371  19.384  22.869  0.00  0.00    +0.000 OA
ATOM    210  O5' A   B  30     -17.194  18.341  23.511  0.00  0.00    +0.000 OA
ATOM    211  C5' A   B  30     -16.335  17.526  24.296  0.00  0.00    +0.000 C 
ATOM    212  C4' A   B  30     -15.020  17.276  23.589  0.00  0.00    +0.000 C 
ATOM    213  O4' A   B  30     -15.263  16.650  22.302  0.00  0.00    +0.000 OA
ATOM    214  C3' A   B  30     -14.206  18.507  23.243  0.00  0.00    +0.000 C 
ATOM    215  O3' A   B  30     -13.475  19.009  24.354  0.00  0.00    +0.000 OA
ATOM    216  C2' A   B  30     -13.321  17.991  22.118  0.00  0.00    +0.000 C 
ATOM    217  C1' A   B  30     -14.289  17.078  21.368  0.00  0.00    +0.000 C 
ATOM    218  P   A   B  31     -13.125  20.568  24.455  0.00  0.00    +0.000 P 
ATOM    219  OP2 A   B  31     -14.289  21.356  23.966  0.00  0.00    +0.000 OA
ATOM    220  O5' A   B  31     -11.936  20.742  23.403  0.00  0.00    +0.000 OA
ATOM    221  C5' A   B  31     -10.693  20.081  23.592  0.00  0.00    +0.000 C 
ATOM    222  C4' A   B  31      -9.832  20.179  22.352  0.00  0.00    +0.000 C 
ATOM    223  O4' A   B  31     -10.513  19.567  21.227  0.00  0.00    +0.000 OA
ATOM    224  C3' A   B  31      -9.526  21.584  21.873  0.00  0.00    +0.000 C 
ATOM    225  O3' A   B  31      -8.470  22.192  22.603  0.00  0.00    +0.000 OA
ATOM    226  C2' A   B  31      -9.190  21.351  20.406  0.00  0.00    +0.000 C 
ATOM    227  C1' A   B  31     -10.196  20.261  20.035  0.00  0.00    +0.000 C 
ATOM    228  P   A   B  32      -8.446  23.778  22.829  0.00  0.00    +0.000 P 
ATOM    229  OP2 A   B  32      -9.838  24.255  23.049  0.00  0.00    +0.000 OA
ATOM    230  O5' A   B  32      -7.951  24.334  21.416  0.00  0.00    +0.000 OA
ATOM    231  C5' A   B  32      -6.665  24.009  20.913  0.00  0.00    +0.000 C 
ATOM    232  C4' A   B  32      -6.526  24.432  19.470  0.00  0.00    +0.000 C 
ATOM    233  O4' A   B  32      -7.477  23.701  18.651  0.00  0.00    +0.000 OA
ATOM    234  C3' A   B  32      -6.838  25.887  19.180  0.00  0.00    +0.000 C 
ATOM    235  O3' A   B  32      -5.751  26.750  19.488  0.00  0.00    +0.000 OA
ATOM    236  C2' A   B  32      -7.181  25.850  17.696  0.00  0.00    +0.000 C 
ATOM    237  C1' A   B  32      -7.943  24.526  17.601  0.00  0.00    +0.000 C 
ATOM    238  P   U   B  33      -6.020  28.209  20.110  0.00  0.00    +0.000 P 
ATOM    239  OP1 U   B  33      -4.717  28.756  20.554  0.00  0.00    +0.000 OA
ATOM    240  O5' U   B  33      -6.516  29.052  18.850  0.00  0.00    +0.000 OA
ATOM    241  C5' U   B  33      -5.664  29.271  17.731  0.00  0.00    +0.000 C 
ATOM    242  C4' U   B  33      -6.432  29.816  16.552  0.00  0.00    +0.000 C 
ATOM    243  O4' U   B  33      -7.407  28.837  16.102  0.00  0.00    +0.000 OA
ATOM    244  C3' U   B  33      -7.262  31.053  16.819  0.00  0.00    +0.000 C 
ATOM    245  O3' U   B  33      -6.492  32.247  16.843  0.00  0.00    +0.000 OA
ATOM    246  C2' U   B  33      -8.271  31.002  15.678  0.00  0.00    +0.000 C 
ATOM    247  C1' U   B  33      -8.554  29.500  15.602  0.00  0.00    +0.000 C 
ATOM    248  P   A   B  34      -6.893  33.430  17.859  0.00  0.00    +0.000 P 
ATOM    249  OP1 A   B  34      -5.791  34.426  17.839  0.00  0.00    +0.000 OA
ATOM    250  O5' A   B  34      -8.173  34.080  17.163  0.00  0.00    +0.000 OA
ATOM    251  C5' A   B  34      -8.058  34.759  15.918  0.00  0.00    +0.000 C 
ATOM    252  C4' A   B  34      -9.413  35.051  15.320  0.00  0.00    +0.000 C 
ATOM    253  O4' A   B  34     -10.113  33.809  15.050  0.00  0.00    +0.000 OA
ATOM    254  C3' A   B  34     -10.381  35.819  16.198  0.00  0.00    +0.000 C 
ATOM    255  O3' A   B  34     -10.115  37.214  16.244  0.00  0.00    +0.000 OA
ATOM    256  C2' A   B  34     -11.716  35.477  15.554  0.00  0.00    +0.000 C 
ATOM    257  C1' A   B  34     -11.507  34.004  15.210  0.00  0.00    +0.000 C 
ATOM    258  P   A   B  35     -10.445  38.035  17.592  0.00  0.00    +0.000 P 
ATOM    259  OP1 A   B  35      -9.886  39.399  17.419  0.00  0.00    +0.000 OA
ATOM    260  O5' A   B  35     -12.037  38.136  17.591  0.00  0.00    +0.000 OA
ATOM    261  C5' A   B  35     -12.713  38.921  16.611  0.00  0.00    +0.000 C 
ATOM    262  C4' A   B  35     -14.181  38.574  16.538  0.00  0.00    +0.000 C 
ATOM    263  O4' A   B  35     -14.345  37.143  16.367  0.00  0.00    +0.000 OA
ATOM    264  C3' A   B  35     -15.008  38.875  17.773  0.00  0.00    +0.000 C 
ATOM    265  O3' A   B  35     -15.350  40.245  17.900  0.00  0.00    +0.000 OA
ATOM    266  C2' A   B  35     -16.212  37.972  17.561  0.00  0.00    +0.000 C 
ATOM    267  C1' A   B  35     -15.545  36.720  16.993  0.00  0.00    +0.000 C 
ATOM    268  P   U   B  36     -15.493  40.899  19.376  0.00  0.00    +0.000 P 
ATOM    269  OP1 U   B  36     -15.842  42.325  19.186  0.00  0.00    +0.000 OA
ATOM    270  O5' U   B  36     -16.742  40.148  20.025  0.00  0.00    +0.000 OA
ATOM    271  C5' U   B  36     -18.054  40.331  19.508  0.00  0.00    +0.000 C 
ATOM    272  C4' U   B  36     -19.053  39.434  20.202  0.00  0.00    +0.000 C 
ATOM    273  O4' U   B  36     -18.680  38.036  20.023  0.00  0.00    +0.000 OA
ATOM    274  C3' U   B  36     -19.151  39.586  21.703  0.00  0.00    +0.000 C 
ATOM    275  O3' U   B  36     -19.914  40.718  22.092  0.00  0.00    +0.000 OA
ATOM    276  C2' U   B  36     -19.779  38.258  22.115  0.00  0.00    +0.000 C 
ATOM    277  C1' U   B  36     -19.069  37.289  21.162  0.00  0.00    +0.000 C 
ATOM    278  P   A   B  37     -19.631  41.400  23.521  0.00  0.00    +0.000 P 
ATOM    279  OP1 A   B  37     -20.252  42.744  23.503  0.00  0.00    +0.000 OA
ATOM    280  O5' A   B  37     -20.440  40.487  24.544  0.00  0.00    +0.000 OA
ATOM    281  C5' A   B  37     -21.861  40.457  24.521  0.00  0.00    +0.000 C 
ATOM    282  C4' A   B  37     -22.409  39.587  25.627  0.00  0.00    +0.000 C 
ATOM    283  O4' A   B  37     -22.039  38.201  25.399  0.00  0.00    +0.000 OA
ATOM    284  C3' A   B  37     -21.883  39.877  27.024  0.00  0.00    +0.000 C 
ATOM    285  O3' A   B  37     -22.521  40.994  27.627  0.00  0.00    +0.000 OA
ATOM    286  C2' A   B  37     -22.161  38.564  27.745  0.00  0.00    +0.000 C 
ATOM    287  C1' A   B  37     -21.862  37.548  26.645  0.00  0.00    +0.000 C 
ATOM    288  P   U   B  38     -21.684  42.009  28.551  0.00  0.00    +0.000 P 
ATOM    289  OP2 U   B  38     -20.358  42.248  27.911  0.00  0.00    +0.000 OA
ATOM    290  O5' U   B  38     -21.433  41.176  29.889  0.00  0.00    +0.000 OA
ATOM    291  C5' U   B  38     -22.525  40.727  30.683  0.00  0.00    +0.000 C 
ATOM    292  C4' U   B  38     -22.059  39.749  31.740  0.00  0.00    +0.000 C 
ATOM    293  O4' U   B  38     -21.385  38.629  31.101  0.00  0.00    +0.000 OA
ATOM    294  C3' U   B  38     -21.037  40.279  32.728  0.00  0.00    +0.000 C 
ATOM    295  O3' U   B  38     -21.648  41.019  33.786  0.00  0.00    +0.000 OA
ATOM    296  C2' U   B  38     -20.352  39.003  33.214  0.00  0.00    +0.000 C 
ATOM    297  C1' U   B  38     -20.357  38.142  31.943  0.00  0.00    +0.000 C 
ATOM    298  P   U   B  39     -21.208  42.502  34.241  0.00  0.00    +0.000 P 
ATOM    299  OP2 U   B  39     -22.352  43.396  33.953  0.00  0.00    +0.000 OA
ATOM    300  O5' U   B  39     -20.015  42.881  33.255  0.00  0.00    +0.000 OA
ATOM    301  C5' U   B  39     -18.706  43.106  33.770  0.00  0.00    +0.000 C 
ATOM    302  C4' U   B  39     -17.664  42.868  32.695  0.00  0.00    +0.000 C 
ATOM    303  O4' U   B  39     -17.973  43.700  31.557  0.00  0.00    +0.000 OA
ATOM    304  C3' U   B  39     -16.239  43.234  33.062  0.00  0.00    +0.000 C 
ATOM    305  O3' U   B  39     -15.557  42.169  33.703  0.00  0.00    +0.000 OA
ATOM    306  C2' U   B  39     -15.595  43.563  31.719  0.00  0.00    +0.000 C 
ATOM    307  C1' U   B  39     -16.785  44.079  30.904  0.00  0.00    +0.000 C 
ATOM    308  P   C   B  40     -15.784  41.461  34.970  0.00  0.00    +0.000 P 
ATOM    309  OP1 C   B  40     -16.256  40.093  34.616  0.00  0.00    +0.000 OA
ATOM    310  O5' C   B  40     -14.319  41.319  35.595  0.00  0.00    +0.000 OA
ATOM    311  C5' C   B  40     -13.209  42.064  35.094  0.00  0.00    +0.000 C 
ATOM    312  C4' C   B  40     -12.047  41.951  36.050  0.00  0.00    +0.000 C 
ATOM    313  O4' C   B  40     -12.430  42.522  37.324  0.00  0.00    +0.000 OA
ATOM    314  C3' C   B  40     -11.610  40.543  36.388  0.00  0.00    +0.000 C 
ATOM    315  O3' C   B  40     -10.704  40.012  35.425  0.00  0.00    +0.000 OA
ATOM    316  C2' C   B  40     -10.978  40.699  37.759  0.00  0.00    +0.000 C 
ATOM    317  C1' C   B  40     -11.878  41.761  38.380  0.00  0.00    +0.000 C 
ATOM    318  P   U   B  41     -10.986  38.582  34.762  0.00  0.00    +0.000 P 
ATOM    319  OP1 U   B  41      -9.946  38.349  33.733  0.00  0.00    +0.000 OA
ATOM    320  O5' U   B  41     -10.727  37.570  35.972  0.00  0.00    +0.000 OA
ATOM    321  C5' U   B  41      -9.428  37.410  36.535  0.00  0.00    +0.000 C 
ATOM    322  C4' U   B  41      -9.476  36.501  37.740  0.00  0.00    +0.000 C 
ATOM    323  O4' U   B  41     -10.186  37.154  38.824  0.00  0.00    +0.000 OA
ATOM    324  C3' U   B  41     -10.224  35.201  37.549  0.00  0.00    +0.000 C 
ATOM    325  O3' U   B  41      -9.441  34.212  36.885  0.00  0.00    +0.000 OA
ATOM    326  C2' U   B  41     -10.595  34.824  38.978  0.00  0.00    +0.000 C 
ATOM    327  C1' U   B  41     -10.910  36.197  39.570  0.00  0.00    +0.000 C 
ATOM    328  P   U   B  42     -10.139  33.217  35.812  0.00  0.00    +0.000 P 
ATOM    329  OP1 U   B  42      -9.061  32.583  35.014  0.00  0.00    +0.000 OA
ATOM    330  O5' U   B  42     -10.811  32.086  36.726  0.00  0.00    +0.000 OA
ATOM    331  C5' U   B  42     -10.009  31.122  37.393  0.00  0.00    +0.000 C 
ATOM    332  C4' U   B  42     -10.857  30.165  38.198  0.00  0.00    +0.000 C 
ATOM    333  O4' U   B  42     -11.451  30.856  39.332  0.00  0.00    +0.000 OA
ATOM    334  C3' U   B  42     -12.045  29.559  37.489  0.00  0.00    +0.000 C 
ATOM    335  O3' U   B  42     -11.692  28.492  36.611  0.00  0.00    +0.000 OA
ATOM    336  C2' U   B  42     -12.921  29.116  38.658  0.00  0.00    +0.000 C 
ATOM    337  C1' U   B  42     -12.699  30.263  39.644  0.00  0.00    +0.000 C 
ATOM    338  P   A   B  43     -12.412  28.366  35.158  0.00  0.00    +0.000 P 
ATOM    339  OP2 A   B  43     -12.307  29.674  34.464  0.00  0.00    +0.000 OA
ATOM    340  O5' A   B  43     -13.956  28.119  35.505  0.00  0.00    +0.000 OA
ATOM    341  C5' A   B  43     -14.380  26.901  36.110  0.00  0.00    +0.000 C 
ATOM    342  C4' A   B  43     -15.843  26.961  36.486  0.00  0.00    +0.000 C 
ATOM    343  O4' A   B  43     -16.068  28.044  37.427  0.00  0.00    +0.000 OA
ATOM    344  C3' A   B  43     -16.811  27.259  35.353  0.00  0.00    +0.000 C 
ATOM    345  O3' A   B  43     -17.109  26.111  34.563  0.00  0.00    +0.000 OA
ATOM    346  C2' A   B  43     -18.021  27.798  36.104  0.00  0.00    +0.000 C 
ATOM    347  C1' A   B  43     -17.352  28.602  37.218  0.00  0.00    +0.000 C 
ATOM    348  P   C   B  44     -17.121  26.212  32.947  0.00  0.00    +0.000 P 
ATOM    349  OP1 C   B  44     -17.445  24.866  32.410  0.00  0.00    +0.000 OA
ATOM    350  O5' C   B  44     -18.342  27.190  32.631  0.00  0.00    +0.000 OA
ATOM    351  C5' C   B  44     -19.676  26.841  32.989  0.00  0.00    +0.000 C 
ATOM    352  C4' C   B  44     -20.593  28.038  32.886  0.00  0.00    +0.000 C 
ATOM    353  O4' C   B  44     -20.120  29.091  33.766  0.00  0.00    +0.000 OA
ATOM    354  C3' C   B  44     -20.667  28.699  31.524  0.00  0.00    +0.000 C 
ATOM    355  O3' C   B  44     -21.555  28.019  30.643  0.00  0.00    +0.000 OA
ATOM    356  C2' C   B  44     -21.134  30.105  31.873  0.00  0.00    +0.000 C 
ATOM    357  C1' C   B  44     -20.384  30.356  33.188  0.00  0.00    +0.000 C 
ATOM    358  P   U   B  45     -21.238  27.917  29.079  0.00  0.00    +0.000 P 
ATOM    359  OP1 U   B  45     -21.969  26.734  28.573  0.00  0.00    +0.000 OA
ATOM    360  O5' U   B  45     -21.922  29.228  28.461  0.00  0.00    +0.000 OA
ATOM    361  C5' U   B  45     -23.249  29.593  28.810  0.00  0.00    +0.000 C 
ATOM    362  C4' U   B  45     -23.791  30.651  27.884  0.00  0.00    +0.000 C 
ATOM    363  O4' U   B  45     -22.987  31.856  27.977  0.00  0.00    +0.000 OA
ATOM    364  C3' U   B  45     -23.767  30.316  26.407  0.00  0.00    +0.000 C 
ATOM    365  O3' U   B  45     -24.837  29.456  26.023  0.00  0.00    +0.000 OA
ATOM    366  C2' U   B  45     -23.847  31.700  25.767  0.00  0.00    +0.000 C 
ATOM    367  C1' U   B  45     -22.974  32.515  26.723  0.00  0.00    +0.000 C 
ATOM    368  P   U   B  46     -24.620  28.345  24.907  0.00  0.00    +0.000 P 
ATOM    369  OP1 U   B  46     -25.848  27.508  24.835  0.00  0.00    +0.000 OA
ATOM    370  O5' U   B  46     -24.522  29.200  23.564  0.00  0.00    +0.000 OA
ATOM    371  C5' U   B  46     -25.636  29.950  23.093  0.00  0.00    +0.000 C 
ATOM    372  C4' U   B  46     -25.220  30.952  22.043  0.00  0.00    +0.000 C 
ATOM    373  O4' U   B  46     -24.209  31.846  22.584  0.00  0.00    +0.000 OA
ATOM    374  C3' U   B  46     -24.566  30.389  20.798  0.00  0.00    +0.000 C 
ATOM    375  O3' U   B  46     -25.506  29.843  19.879  0.00  0.00    +0.000 OA
ATOM    376  C2' U   B  46     -23.827  31.607  20.257  0.00  0.00    +0.000 C 
ATOM    377  C1' U   B  46     -23.327  32.249  21.553  0.00  0.00    +0.000 C 
ATOM    378  P   U   B  47     -25.056  28.703  18.860  0.00  0.00    +0.000 P 
ATOM    379  OP1 U   B  47     -26.281  28.171  18.208  0.00  0.00    +0.000 OA
ATOM    380  O5' U   B  47     -24.219  29.515  17.765  0.00  0.00    +0.000 OA
ATOM    381  C5' U   B  47     -24.842  30.518  16.969  0.00  0.00    +0.000 C 
ATOM    382  C4' U   B  47     -23.824  31.317  16.185  0.00  0.00    +0.000 C 
ATOM    383  O4' U   B  47     -22.887  31.963  17.093  0.00  0.00    +0.000 OA
ATOM    384  C3' U   B  47     -22.929  30.528  15.255  0.00  0.00    +0.000 C 
ATOM    385  O3' U   B  47     -23.580  30.177  14.039  0.00  0.00    +0.000 OA
ATOM    386  C2' U   B  47     -21.759  31.487  15.060  0.00  0.00    +0.000 C 
ATOM    387  C1' U   B  47     -21.622  32.080  16.465  0.00  0.00    +0.000 C 
ATOM    388  P   A   B  48     -23.128  28.864  13.249  0.00  0.00    +0.000 P 
ATOM    389  OP1 A   B  48     -24.143  28.604  12.196  0.00  0.00    +0.000 OA
ATOM    390  O5' A   B  48     -21.773  29.325  12.537  0.00  0.00    +0.000 OA
ATOM    391  C5' A   B  48     -21.778  30.366  11.565  0.00  0.00    +0.000 C 
ATOM    392  C4' A   B  48     -20.369  30.773  11.195  0.00  0.00    +0.000 C 
ATOM    393  O4' A   B  48     -19.688  31.313  12.360  0.00  0.00    +0.000 OA
ATOM    394  C3' A   B  48     -19.458  29.651  10.733  0.00  0.00    +0.000 C 
ATOM    395  O3' A   B  48     -19.676  29.304   9.369  0.00  0.00    +0.000 OA
ATOM    396  C2' A   B  48     -18.074  30.235  10.996  0.00  0.00    +0.000 C 
ATOM    397  C1' A   B  48     -18.310  30.984  12.308  0.00  0.00    +0.000 C 
ATOM    398  P   U   B  49     -19.491  27.781   8.880  0.00  0.00    +0.000 P 
ATOM    399  OP1 U   B  49     -20.060  27.670   7.516  0.00  0.00    +0.000 OA
ATOM    400  O5' U   B  49     -17.902  27.624   8.778  0.00  0.00    +0.000 OA
ATOM    401  C5' U   B  49     -17.147  28.406   7.860  0.00  0.00    +0.000 C 
ATOM    402  C4' U   B  49     -15.666  28.322   8.153  0.00  0.00    +0.000 C 
ATOM    403  O4' U   B  49     -15.394  28.857   9.480  0.00  0.00    +0.000 OA
ATOM    404  C3' U   B  49     -15.077  26.928   8.202  0.00  0.00    +0.000 C 
ATOM    405  O3' U   B  49     -14.825  26.391   6.908  0.00  0.00    +0.000 OA
ATOM    406  C2' U   B  49     -13.813  27.148   9.026  0.00  0.00    +0.000 C 
ATOM    407  C1' U   B  49     -14.311  28.156  10.066  0.00  0.00    +0.000 C 
ATOM    408  P   U   B  50     -14.954  24.800   6.657  0.00  0.00    +0.000 P 
ATOM    409  OP1 U   B  50     -14.850  24.561   5.198  0.00  0.00    +0.000 OA
ATOM    410  O5' U   B  50     -13.642  24.211   7.357  0.00  0.00    +0.000 OA
ATOM    411  C5' U   B  50     -12.344  24.528   6.867  0.00  0.00    +0.000 C 
ATOM    412  C4' U   B  50     -11.268  24.146   7.857  0.00  0.00    +0.000 C 
ATOM    413  O4' U   B  50     -11.481  24.847   9.115  0.00  0.00    +0.000 OA
ATOM    414  C3' U   B  50     -11.223  22.687   8.262  0.00  0.00    +0.000 C 
ATOM    415  O3' U   B  50     -10.587  21.863   7.294  0.00  0.00    +0.000 OA
ATOM    416  C2' U   B  50     -10.472  22.753   9.585  0.00  0.00    +0.000 C 
ATOM    417  C1' U   B  50     -11.051  24.033  10.192  0.00  0.00    +0.000 C 
ATOM    418  P   U   B  51     -11.017  20.317   7.146  0.00  0.00    +0.000 P 
ATOM    419  OP1 U   B  51     -10.323  19.767   5.957  0.00  0.00    +0.000 OA
ATOM    420  O5' U   B  51     -10.391  19.633   8.451  0.00  0.00    +0.000 OA
ATOM    421  C5' U   B  51      -8.983  19.580   8.649  0.00  0.00    +0.000 C 
ATOM    422  C4' U   B  51      -8.636  19.154  10.057  0.00  0.00    +0.000 C 
ATOM    423  O4' U   B  51      -9.215  20.081  11.015  0.00  0.00    +0.000 OA
ATOM    424  C3' U   B  51      -9.167  17.804  10.496  0.00  0.00    +0.000 C 
ATOM    425  O3' U   B  51      -8.388  16.720  10.005  0.00  0.00    +0.000 OA
ATOM    426  C2' U   B  51      -9.131  17.929  12.013  0.00  0.00    +0.000 C 
ATOM    427  C1' U   B  51      -9.561  19.386  12.201  0.00  0.00    +0.000 C 
ATOM    428  P   U   B  52      -9.081  15.292   9.724  0.00  0.00    +0.000 P 
ATOM    429  OP1 U   B  52      -8.090  14.442   9.021  0.00  0.00    +0.000 OA
ATOM    430  O5' U   B  52      -9.295  14.696  11.193  0.00  0.00    +0.000 OA
ATOM    431  C5' U   B  52      -8.188  14.391  12.032  0.00  0.00    +0.000 C 
ATOM    432  C4' U   B  52      -8.628  14.124  13.453  0.00  0.00    +0.000 C 
ATOM    433  O4' U   B  52      -9.309  15.291  13.990  0.00  0.00    +0.000 OA
ATOM    434  C3' U   B  52      -9.627  13.002  13.641  0.00  0.00    +0.000 C 
ATOM    435  O3' U   B  52      -9.023  11.715  13.613  0.00  0.00    +0.000 OA
ATOM    436  C2' U   B  52     -10.241  13.351  14.990  0.00  0.00    +0.000 C 
ATOM    437  C1' U   B  52     -10.316  14.877  14.897  0.00  0.00    +0.000 C 
ATOM    438  P   A   B  53      -9.871  10.444  13.102  0.00  0.00    +0.000 P 
ATOM    439  OP2 A   B  53     -10.685  10.853  11.926  0.00  0.00    +0.000 OA
ATOM    440  O5' A   B  53     -10.869  10.154  14.317  0.00  0.00    +0.000 OA
ATOM    441  C5' A   B  53     -10.373   9.745  15.588  0.00  0.00    +0.000 C 
ATOM    442  C4' A   B  53     -11.470   9.750  16.628  0.00  0.00    +0.000 C 
ATOM    443  O4' A   B  53     -11.996  11.093  16.787  0.00  0.00    +0.000 OA
ATOM    444  C3' A   B  53     -12.695   8.913  16.303  0.00  0.00    +0.000 C 
ATOM    445  O3' A   B  53     -12.500   7.528  16.564  0.00  0.00    +0.000 OA
ATOM    446  C2' A   B  53     -13.754   9.553  17.190  0.00  0.00    +0.000 C 
ATOM    447  C1' A   B  53     -13.378  11.033  17.088  0.00  0.00    +0.000 C 
ATOM    448  P   A   B  54     -13.286   6.427  15.691  0.00  0.00    +0.000 P 
ATOM    449  OP2 A   B  54     -13.361   6.897  14.282  0.00  0.00    +0.000 OA
ATOM    450  O5' A   B  54     -14.763   6.453  16.300  0.00  0.00    +0.000 OA
ATOM    451  C5' A   B  54     -15.002   6.055  17.646  0.00  0.00    +0.000 C 
ATOM    452  C4' A   B  54     -16.399   6.426  18.083  0.00  0.00    +0.000 C 
ATOM    453  O4' A   B  54     -16.580   7.864  18.000  0.00  0.00    +0.000 OA
ATOM    454  C3' A   B  54     -17.532   5.867  17.240  0.00  0.00    +0.000 C 
ATOM    455  O3' A   B  54     -17.830   4.507  17.538  0.00  0.00    +0.000 OA
ATOM    456  C2' A   B  54     -18.666   6.824  17.574  0.00  0.00    +0.000 C 
ATOM    457  C1' A   B  54     -17.920   8.158  17.650  0.00  0.00    +0.000 C 
ATOM    458  P   A   B  55     -18.397   3.541  16.386  0.00  0.00    +0.000 P 
ATOM    459  OP2 A   B  55     -17.648   3.807  15.128  0.00  0.00    +0.000 OA
ATOM    460  O5' A   B  55     -19.900   4.048  16.176  0.00  0.00    +0.000 OA
ATOM    461  C5' A   B  55     -20.860   3.927  17.222  0.00  0.00    +0.000 C 
ATOM    462  C4' A   B  55     -22.108   4.718  16.915  0.00  0.00    +0.000 C 
ATOM    463  O4' A   B  55     -21.775   6.117  16.712  0.00  0.00    +0.000 OA
ATOM    464  C3' A   B  55     -22.846   4.335  15.641  0.00  0.00    +0.000 C 
ATOM    465  O3' A   B  55     -23.647   3.172  15.794  0.00  0.00    +0.000 OA
ATOM    466  C2' A   B  55     -23.652   5.594  15.363  0.00  0.00    +0.000 C 
ATOM    467  C1' A   B  55     -22.655   6.685  15.761  0.00  0.00    +0.000 C 
ATOM    468  P   A   B  56     -23.920   2.200  14.555  0.00  0.00    +0.000 P 
ATOM    469  OP2 A   B  56     -22.649   2.049  13.798  0.00  0.00    +0.000 OA
ATOM    470  O5' A   B  56     -24.939   3.033  13.646  0.00  0.00    +0.000 OA
ATOM    471  C5' A   B  56     -26.245   3.345  14.118  0.00  0.00    +0.000 C 
ATOM    472  C4' A   B  56     -26.944   4.309  13.187  0.00  0.00    +0.000 C 
ATOM    473  O4' A   B  56     -26.188   5.546  13.094  0.00  0.00    +0.000 OA
ATOM    474  C3' A   B  56     -27.079   3.857  11.743  0.00  0.00    +0.000 C 
ATOM    475  O3' A   B  56     -28.152   2.945  11.551  0.00  0.00    +0.000 OA
ATOM    476  C2' A   B  56     -27.277   5.183  11.020  0.00  0.00    +0.000 C 
ATOM    477  C1' A   B  56     -26.332   6.097  11.800  0.00  0.00    +0.000 C 
ATOM    478  P   A   B  57     -28.079   1.825  10.423  0.00  0.00    +0.000 P 
ATOM    479  OP2 A   B  57     -26.704   1.249  10.434  0.00  0.00    +0.000 OA
ATOM    480  O5' A   B  57     -28.251   2.662   9.072  0.00  0.00    +0.000 OA
ATOM    481  C5' A   B  57     -29.467   3.336   8.783  0.00  0.00    +0.000 C 
ATOM    482  C4' A   B  57     -29.368   4.107   7.487  0.00  0.00    +0.000 C 
ATOM    483  O4' A   B  57     -28.396   5.179   7.631  0.00  0.00    +0.000 OA
ATOM    484  C3' A   B  57     -28.872   3.325   6.289  0.00  0.00    +0.000 C 
ATOM    485  O3' A   B  57     -29.887   2.536   5.686  0.00  0.00    +0.000 OA
ATOM    486  C2' A   B  57     -28.351   4.433   5.381  0.00  0.00    +0.000 C 
ATOM    487  C1' A   B  57     -27.748   5.406   6.397  0.00  0.00    +0.000 C 
ATOM    488  P   C   B  58     -29.972   0.976   5.976  0.00  0.00    +0.000 P 
ATOM    489  OP2 C   B  58     -28.600   0.544   6.349  0.00  0.00    +0.000 OA
ATOM    490  O5' C   B  58     -30.339   0.312   4.572  0.00  0.00    +0.000 OA
ATOM    491  C5' C   B  58     -29.571   0.592   3.407  0.00  0.00    +0.000 C 
ATOM    492  C4' C   B  58     -30.461   0.882   2.218  0.00  0.00    +0.000 C 
ATOM    493  O4' C   B  58     -31.127  -0.347   1.804  0.00  0.00    +0.000 OA
ATOM    494  C3' C   B  58     -31.563   1.910   2.464  0.00  0.00    +0.000 C 
ATOM    495  O3' C   B  58     -31.749   2.705   1.295  0.00  0.00    +0.000 OA
ATOM    496  C2' C   B  58     -32.790   1.043   2.709  0.00  0.00    +0.000 C 
ATOM    497  C1' C   B  58     -32.529  -0.142   1.777  0.00  0.00    +0.000 C 
ATOM    498  P   A   B  59     -31.449   4.271   1.351  0.00  0.00    +0.000 P 
ATOM    499  OP2 A   B  59     -31.444   4.745  -0.064  0.00  0.00    +0.000 OA
ATOM    500  O5' A   B  59     -29.957   4.408   1.923  0.00  0.00    +0.000 OA
ATOM    501  C5' A   B  59     -28.861   3.730   1.354  0.00  0.00    +0.000 C 
ATOM    502  C4' A   B  59     -28.013   4.645   0.497  0.00  0.00    +0.000 C 
ATOM    503  O4' A   B  59     -27.284   5.582   1.338  0.00  0.00    +0.000 OA
ATOM    504  C3' A   B  59     -26.925   3.937  -0.301  0.00  0.00    +0.000 C 
ATOM    505  O3' A   B  59     -27.433   3.379  -1.513  0.00  0.00    +0.000 OA
ATOM    506  C2' A   B  59     -25.917   5.066  -0.523  0.00  0.00    +0.000 C 
ATOM    507  C1' A   B  59     -25.983   5.793   0.821  0.00  0.00    +0.000 C 
ATOM    508  P   G   B  60     -26.954   1.925  -1.970  0.00  0.00    +0.000 P 
ATOM    509  OP1 G   B  60     -27.782   1.518  -3.130  0.00  0.00    +0.000 OA
ATOM    510  O5' G   B  60     -25.459   2.173  -2.474  0.00  0.00    +0.000 OA
ATOM    511  C5' G   B  60     -25.208   3.009  -3.596  0.00  0.00    +0.000 C 
ATOM    512  C4' G   B  60     -23.730   3.174  -3.851  0.00  0.00    +0.000 C 
ATOM    513  O4' G   B  60     -23.122   3.934  -2.775  0.00  0.00    +0.000 OA
ATOM    514  C3' G   B  60     -22.909   1.902  -3.886  0.00  0.00    +0.000 C 
ATOM    515  O3' G   B  60     -23.042   1.182  -5.102  0.00  0.00    +0.000 OA
ATOM    516  C2' G   B  60     -21.507   2.444  -3.656  0.00  0.00    +0.000 C 
ATOM    517  C1' G   B  60     -21.777   3.534  -2.619  0.00  0.00    +0.000 C 
ATOM    518  P   A   B  61     -23.200  -0.409  -5.050  0.00  0.00    +0.000 P 
ATOM    519  OP2 A   B  61     -21.834  -0.999  -5.095  0.00  0.00    +0.000 OA
ATOM    520  O5' A   B  61     -23.906  -0.726  -6.447  0.00  0.00    +0.000 OA
ATOM    521  C5' A   B  61     -25.238  -0.277  -6.712  0.00  0.00    +0.000 C 
ATOM    522  C4' A   B  61     -25.379   0.050  -8.171  0.00  0.00    +0.000 C 
ATOM    523  O4' A   B  61     -24.823   1.361  -8.420  0.00  0.00    +0.000 OA
ATOM    524  C3' A   B  61     -24.620  -0.882  -9.102  0.00  0.00    +0.000 C 
ATOM    525  C2' A   B  61     -24.266   0.005 -10.281  0.00  0.00    +0.000 C 
ATOM    526  C1' A   B  61     -24.037   1.351  -9.593  0.00  0.00    +0.000 C 
ATOM    527  N9  A   B  61     -22.642   1.595  -9.213  0.00  0.00    +0.000 N 
ATOM    528  C8  A   B  61     -22.164   1.789  -7.940  0.00  0.00    +0.000 A 
ATOM    529  N7  A   B  61     -20.866   1.994  -7.879  0.00  0.00    +0.000 NA
ATOM    530  C5  A   B  61     -20.462   1.931  -9.209  0.00  0.00    +0.000 A 
ATOM    531  C6  A   B  61     -19.200   2.064  -9.818  0.00  0.00    +0.000 C 
ATOM    532  N6  A   B  61     -18.070   2.298  -9.133  0.00  0.00    +0.000 NA
ATOM    533  N1  A   B  61     -19.137   1.946 -11.162  0.00  0.00    +0.000 N 
ATOM    534  C2  A   B  61     -20.271   1.713 -11.839  0.00  0.00    +0.000 C 
ATOM    535  N3  A   B  61     -21.510   1.565 -11.380  0.00  0.00    +0.000 NA
ATOM    536  C4  A   B  61     -21.541   1.687 -10.039  0.00  0.00    +0.000 A 
ATOM    537  H   A   B  61     -18.277   2.029 -11.634  0.00  0.00    +0.000 HD
ENDROOT
BRANCH 517 538
ATOM    538  N9  G   B  60     -21.569   3.039  -1.250  0.00  0.00    +0.000 N 
ATOM    539  C8  G   B  60     -22.499   2.531  -0.380  0.00  0.00    +0.000 A 
ATOM    540  N7  G   B  60     -21.979   2.156   0.760  0.00  0.00    +0.000 NA
ATOM    541  C5  G   B  60     -20.622   2.433   0.630  0.00  0.00    +0.000 A 
ATOM    542  C6  G   B  60     -19.551   2.242   1.537  0.00  0.00    +0.000 A 
ATOM    543  O6  G   B  60     -19.584   1.764   2.683  0.00  0.00    +0.000 OA
ATOM    544  N1  G   B  60     -18.343   2.662   0.994  0.00  0.00    +0.000 NA
ATOM    545  C2  G   B  60     -18.181   3.201  -0.258  0.00  0.00    +0.000 A 
ATOM    546  N2  G   B  60     -16.934   3.553  -0.608  0.00  0.00    +0.000 N 
ATOM    547  N3  G   B  60     -19.170   3.385  -1.114  0.00  0.00    +0.000 N 
ATOM    548  C4  G   B  60     -20.358   2.980  -0.604  0.00  0.00    +0.000 A 
ATOM    549  H   G   B  60     -16.764   3.944  -1.495  0.00  0.00    +0.000 HD
ATOM    550  H   G   B  60     -16.190   3.420   0.022  0.00  0.00    +0.000 HD
ATOM    551  H   G   B  60     -19.058   3.770  -2.013  0.00  0.00    +0.000 HD
ENDBRANCH 517 538
BRANCH  97 552
ATOM    552  N9  G   B  18     -21.623 -11.539   5.565  0.00  0.00    +0.000 N 
ATOM    553  C8  G   B  18     -22.522 -11.090   4.625  0.00  0.00    +0.000 A 
ATOM    554  N7  G   B  18     -21.949 -10.698   3.521  0.00  0.00    +0.000 NA
ATOM    555  C5  G   B  18     -20.594 -10.901   3.741  0.00  0.00    +0.000 A 
ATOM    556  C6  G   B  18     -19.479 -10.664   2.895  0.00  0.00    +0.000 A 
ATOM    557  O6  G   B  18     -19.468 -10.207   1.745  0.00  0.00    +0.000 OA
ATOM    558  N1  G   B  18     -18.277 -11.008   3.511  0.00  0.00    +0.000 NA
ATOM    559  C2  G   B  18     -18.166 -11.518   4.782  0.00  0.00    +0.000 A 
ATOM    560  N2  G   B  18     -16.918 -11.793   5.215  0.00  0.00    +0.000 N 
ATOM    561  N3  G   B  18     -19.196 -11.749   5.584  0.00  0.00    +0.000 N 
ATOM    562  C4  G   B  18     -20.374 -11.419   4.998  0.00  0.00    +0.000 A 
ATOM    563  H   G   B  18     -16.145 -11.626   4.628  0.00  0.00    +0.000 HD
ATOM    564  H   G   B  18     -16.780 -12.161   6.118  0.00  0.00    +0.000 HD
ATOM    565  H   G   B  18     -19.116 -12.115   6.494  0.00  0.00    +0.000 HD
ENDBRANCH  97 552
BRANCH 397 566
ATOM    566  N9  A   B  48     -17.978  30.168  13.486  0.00  0.00    +0.000 N 
ATOM    567  C8  A   B  48     -18.829  29.473  14.307  0.00  0.00    +0.000 A 
ATOM    568  N7  A   B  48     -18.223  28.844  15.287  0.00  0.00    +0.000 NA
ATOM    569  C5  A   B  48     -16.879  29.144  15.098  0.00  0.00    +0.000 A 
ATOM    570  C6  A   B  48     -15.718  28.783  15.802  0.00  0.00    +0.000 A 
ATOM    571  N6  A   B  48     -15.725  27.998  16.890  0.00  0.00    +0.000 N 
ATOM    572  N1  A   B  48     -14.536  29.249  15.348  0.00  0.00    +0.000 NA
ATOM    573  C2  A   B  48     -14.529  30.029  14.262  0.00  0.00    +0.000 A 
ATOM    574  N3  A   B  48     -15.554  30.441  13.516  0.00  0.00    +0.000 NA
ATOM    575  C4  A   B  48     -16.714  29.957  13.993  0.00  0.00    +0.000 A 
ATOM    576  H   A   B  48     -16.576  27.647  17.238  0.00  0.00    +0.000 HD
ATOM    577  H   A   B  48     -14.879  27.773  17.340  0.00  0.00    +0.000 HD
ENDBRANCH 397 566
BRANCH 287 578
ATOM    578  N9  A   B  37     -20.485  37.033  26.721  0.00  0.00    +0.000 N 
ATOM    579  C8  A   B  37     -19.406  37.368  25.943  0.00  0.00    +0.000 A 
ATOM    580  N7  A   B  37     -18.302  36.732  26.263  0.00  0.00    +0.000 NA
ATOM    581  C5  A   B  37     -18.682  35.920  27.326  0.00  0.00    +0.000 A 
ATOM    582  C6  A   B  37     -17.971  34.997  28.116  0.00  0.00    +0.000 A 
ATOM    583  N6  A   B  37     -16.670  34.723  27.953  0.00  0.00    +0.000 N 
ATOM    584  N1  A   B  37     -18.649  34.355  29.090  0.00  0.00    +0.000 NA
ATOM    585  C2  A   B  37     -19.952  34.627  29.255  0.00  0.00    +0.000 A 
ATOM    586  N3  A   B  37     -20.726  35.472  28.576  0.00  0.00    +0.000 NA
ATOM    587  C4  A   B  37     -20.019  36.095  27.614  0.00  0.00    +0.000 A 
ATOM    588  H   A   B  37     -16.155  35.179  27.249  0.00  0.00    +0.000 HD
ATOM    589  H   A   B  37     -16.228  34.065  28.538  0.00  0.00    +0.000 HD
ENDBRANCH 287 578
BRANCH 267 590
ATOM    590  N9  A   B  35     -15.223  35.751  18.054  0.00  0.00    +0.000 N 
ATOM    591  C8  A   B  35     -14.000  35.448  18.603  0.00  0.00    +0.000 A 
ATOM    592  N7  A   B  35     -14.059  34.535  19.543  0.00  0.00    +0.000 NA
ATOM    593  C5  A   B  35     -15.411  34.218  19.619  0.00  0.00    +0.000 A 
ATOM    594  C6  A   B  35     -16.134  33.319  20.422  0.00  0.00    +0.000 A 
ATOM    595  N6  A   B  35     -15.567  32.536  21.352  0.00  0.00    +0.000 N 
ATOM    596  N1  A   B  35     -17.470  33.253  20.246  0.00  0.00    +0.000 NA
ATOM    597  C2  A   B  35     -18.036  34.036  19.323  0.00  0.00    +0.000 A 
ATOM    598  N3  A   B  35     -17.464  34.917  18.506  0.00  0.00    +0.000 NA
ATOM    599  C4  A   B  35     -16.135  34.960  18.709  0.00  0.00    +0.000 A 
ATOM    600  H   A   B  35     -14.594  32.569  21.496  0.00  0.00    +0.000 HD
ATOM    601  H   A   B  35     -16.124  31.928  21.890  0.00  0.00    +0.000 HD
ENDBRANCH 267 590
BRANCH 257 602
ATOM    602  N9  A   B  34     -11.992  33.121  16.285  0.00  0.00    +0.000 N 
ATOM    603  C8  A   B  34     -11.270  32.500  17.273  0.00  0.00    +0.000 A 
ATOM    604  N7  A   B  34     -12.007  31.777  18.087  0.00  0.00    +0.000 NA
ATOM    605  C5  A   B  34     -13.300  31.937  17.603  0.00  0.00    +0.000 A 
ATOM    606  C6  A   B  34     -14.542  31.430  18.024  0.00  0.00    +0.000 A 
ATOM    607  N6  A   B  34     -14.689  30.621  19.083  0.00  0.00    +0.000 N 
ATOM    608  N1  A   B  34     -15.635  31.786  17.318  0.00  0.00    +0.000 NA
ATOM    609  C2  A   B  34     -15.489  32.597  16.264  0.00  0.00    +0.000 A 
ATOM    610  N3  A   B  34     -14.373  33.135  15.770  0.00  0.00    +0.000 NA
ATOM    611  C4  A   B  34     -13.303  32.762  16.495  0.00  0.00    +0.000 A 
ATOM    612  H   A   B  34     -15.584  30.295  19.333  0.00  0.00    +0.000 HD
ATOM    613  H   A   B  34     -13.902  30.353  19.610  0.00  0.00    +0.000 HD
ENDBRANCH 257 602
BRANCH 507 614
ATOM    614  N9  A   B  59     -25.017   5.262   1.797  0.00  0.00    +0.000 N 
ATOM    615  C8  A   B  59     -25.285   4.590   2.963  0.00  0.00    +0.000 A 
ATOM    616  N7  A   B  59     -24.210   4.237   3.636  0.00  0.00    +0.000 NA
ATOM    617  C5  A   B  59     -23.162   4.715   2.858  0.00  0.00    +0.000 A 
ATOM    618  C6  A   B  59     -21.765   4.665   3.021  0.00  0.00    +0.000 A 
ATOM    619  N6  A   B  59     -21.160   4.080   4.071  0.00  0.00    +0.000 N 
ATOM    620  N1  A   B  59     -20.999   5.232   2.064  0.00  0.00    +0.000 NA
ATOM    621  C2  A   B  59     -21.606   5.810   1.016  0.00  0.00    +0.000 A 
ATOM    622  N3  A   B  59     -22.909   5.920   0.751  0.00  0.00    +0.000 NA
ATOM    623  C4  A   B  59     -23.641   5.345   1.724  0.00  0.00    +0.000 A 
ATOM    624  H   A   B  59     -20.177   4.075   4.133  0.00  0.00    +0.000 HD
ATOM    625  H   A   B  59     -21.700   3.657   4.777  0.00  0.00    +0.000 HD
ENDBRANCH 507 614
BRANCH 137 626
ATOM    626  N1  C   B  22     -13.589   2.941   2.605  0.00  0.00    +0.000 N 
ATOM    627  C2  C   B  22     -14.768   2.872   1.851  0.00  0.00    +0.000 A 
ATOM    628  O2  C   B  22     -14.719   3.117   0.639  0.00  0.00    +0.000 OA
ATOM    629  N3  C   B  22     -15.933   2.538   2.463  0.00  0.00    +0.000 NA
ATOM    630  C4  C   B  22     -15.950   2.281   3.774  0.00  0.00    +0.000 A 
ATOM    631  N4  C   B  22     -17.121   1.961   4.333  0.00  0.00    +0.000 N 
ATOM    632  C5  C   B  22     -14.767   2.348   4.563  0.00  0.00    +0.000 A 
ATOM    633  C6  C   B  22     -13.623   2.677   3.946  0.00  0.00    +0.000 A 
ATOM    634  H   C   B  22     -17.935   1.917   3.780  0.00  0.00    +0.000 HD
ATOM    635  H   C   B  22     -17.170   1.769   5.297  0.00  0.00    +0.000 HD
ENDBRANCH 137 626
BRANCH 497 636
ATOM    636  N1  C   B  58     -33.186  -1.399   2.188  0.00  0.00    +0.000 N 
ATOM    637  C2  C   B  58     -34.260  -1.886   1.434  0.00  0.00    +0.000 A 
ATOM    638  O2  C   B  58     -34.637  -1.244   0.434  0.00  0.00    +0.000 OA
ATOM    639  N3  C   B  58     -34.867  -3.039   1.810  0.00  0.00    +0.000 NA
ATOM    640  C4  C   B  58     -34.432  -3.700   2.889  0.00  0.00    +0.000 A 
ATOM    641  N4  C   B  58     -35.057  -4.827   3.220  0.00  0.00    +0.000 N 
ATOM    642  C5  C   B  58     -33.340  -3.225   3.673  0.00  0.00    +0.000 A 
ATOM    643  C6  C   B  58     -32.752  -2.079   3.289  0.00  0.00    +0.000 A 
ATOM    644  H   C   B  58     -35.810  -5.150   2.675  0.00  0.00    +0.000 HD
ATOM    645  H   C   B  58     -34.766  -5.338   4.010  0.00  0.00    +0.000 HD
ENDBRANCH 497 636
BRANCH  87 646
ATOM    646  N1  C   B  17     -23.919 -15.734   7.389  0.00  0.00    +0.000 N 
ATOM    647  C2  C   B  17     -22.839 -15.672   8.278  0.00  0.00    +0.000 A 
ATOM    648  O2  C   B  17     -23.063 -15.642   9.498  0.00  0.00    +0.000 OA
ATOM    649  N3  C   B  17     -21.572 -15.648   7.786  0.00  0.00    +0.000 NA
ATOM    650  C4  C   B  17     -21.366 -15.681   6.466  0.00  0.00    +0.000 A 
ATOM    651  N4  C   B  17     -20.102 -15.652   6.030  0.00  0.00    +0.000 N 
ATOM    652  C5  C   B  17     -22.447 -15.742   5.541  0.00  0.00    +0.000 A 
ATOM    653  C6  C   B  17     -23.694 -15.765   6.039  0.00  0.00    +0.000 A 
ATOM    654  H   C   B  17     -19.914 -15.675   5.064  0.00  0.00    +0.000 HD
ATOM    655  H   C   B  17     -19.360 -15.608   6.675  0.00  0.00    +0.000 HD
ENDBRANCH  87 646
BRANCH 357 656
ATOM    656  N1  C   B  44     -19.101  31.066  32.993  0.00  0.00    +0.000 N 
ATOM    657  C2  C   B  44     -19.118  32.454  32.817  0.00  0.00    +0.000 A 
ATOM    658  O2  C   B  44     -20.208  33.049  32.829  0.00  0.00    +0.000 OA
ATOM    659  N3  C   B  44     -17.947  33.118  32.638  0.00  0.00    +0.000 NA
ATOM    660  C4  C   B  44     -16.791  32.449  32.631  0.00  0.00    +0.000 A 
ATOM    661  N4  C   B  44     -15.666  33.143  32.452  0.00  0.00    +0.000 N 
ATOM    662  C5  C   B  44     -16.744  31.036  32.808  0.00  0.00    +0.000 A 
ATOM    663  C6  C   B  44     -17.907  30.390  32.986  0.00  0.00    +0.000 A 
ATOM    664  H   C   B  44     -15.704  34.119  32.330  0.00  0.00    +0.000 HD
ATOM    665  H   C   B  44     -14.798  32.679  32.442  0.00  0.00    +0.000 HD
ENDBRANCH 357 656
BRANCH  47 666
ATOM    666  N1  C   B  13     -13.673 -10.986   1.516  0.00  0.00    +0.000 N 
ATOM    667  C2  C   B  13     -14.822 -10.939   2.317  0.00  0.00    +0.000 A 
ATOM    668  O2  C   B  13     -14.750 -11.305   3.497  0.00  0.00    +0.000 OA
ATOM    669  N3  C   B  13     -15.988 -10.499   1.781  0.00  0.00    +0.000 NA
ATOM    670  C4  C   B  13     -16.032 -10.112   0.503  0.00  0.00    +0.000 A 
ATOM    671  N4  C   B  13     -17.201  -9.685   0.019  0.00  0.00    +0.000 N 
ATOM    672  C5  C   B  13     -14.880 -10.149  -0.333  0.00  0.00    +0.000 A 
ATOM    673  C6  C   B  13     -13.732 -10.587   0.208  0.00  0.00    +0.000 A 
ATOM    674  H   C   B  13     -17.268  -9.393  -0.919  0.00  0.00    +0.000 HD
ATOM    675  H   C   B  13     -17.996  -9.663   0.600  0.00  0.00    +0.000 HD
ENDBRANCH  47 666
BRANCH 317 676
ATOM    676  N1  C   B  40     -12.987  41.195  39.183  0.00  0.00    +0.000 N 
ATOM    677  C2  C   B  40     -12.713  40.623  40.428  0.00  0.00    +0.000 A 
ATOM    678  O2  C   B  40     -11.547  40.583  40.837  0.00  0.00    +0.000 OA
ATOM    679  N3  C   B  40     -13.736  40.118  41.159  0.00  0.00    +0.000 NA
ATOM    680  C4  C   B  40     -14.987  40.178  40.698  0.00  0.00    +0.000 A 
ATOM    681  N4  C   B  40     -15.957  39.674  41.459  0.00  0.00    +0.000 N 
ATOM    682  C5  C   B  40     -15.298  40.760  39.441  0.00  0.00    +0.000 A 
ATOM    683  C6  C   B  40     -14.279  41.257  38.722  0.00  0.00    +0.000 A 
ATOM    684  H   C   B  40     -16.891  39.702  41.149  0.00  0.00    +0.000 HD
ATOM    685  H   C   B  40     -15.740  39.273  42.332  0.00  0.00    +0.000 HD
ENDBRANCH 317 676
BRANCH  77 686
ATOM    686  N1  C   B  16     -23.479 -19.488   4.933  0.00  0.00    +0.000 N 
ATOM    687  C2  C   B  16     -23.332 -19.480   6.325  0.00  0.00    +0.000 A 
ATOM    688  O2  C   B  16     -24.336 -19.630   7.039  0.00  0.00    +0.000 OA
ATOM    689  N3  C   B  16     -22.098 -19.310   6.865  0.00  0.00    +0.000 NA
ATOM    690  C4  C   B  16     -21.037 -19.152   6.070  0.00  0.00    +0.000 A 
ATOM    691  N4  C   B  16     -19.842 -18.988   6.646  0.00  0.00    +0.000 N 
ATOM    692  C5  C   B  16     -21.155 -19.159   4.653  0.00  0.00    +0.000 A 
ATOM    693  C6  C   B  16     -22.383 -19.326   4.129  0.00  0.00    +0.000 A 
ATOM    694  H   C   B  16     -19.039 -18.869   6.089  0.00  0.00    +0.000 HD
ATOM    695  H   C   B  16     -19.765 -18.986   7.627  0.00  0.00    +0.000 HD
ENDBRANCH  77 686
BRANCH 107 696
ATOM    696  N9  A   B  19     -17.606  -8.637   6.669  0.00  0.00    +0.000 N 
ATOM    697  C8  A   B  19     -18.924  -8.416   6.355  0.00  0.00    +0.000 A 
ATOM    698  N7  A   B  19     -19.105  -7.967   5.135  0.00  0.00    +0.000 NA
ATOM    699  C5  A   B  19     -17.822  -7.881   4.611  0.00  0.00    +0.000 A 
ATOM    700  C6  A   B  19     -17.331  -7.473   3.359  0.00  0.00    +0.000 A 
ATOM    701  N1  A   B  19     -15.996  -7.510   3.164  0.00  0.00    +0.000 NA
ATOM    702  C2  A   B  19     -15.208  -7.932   4.163  0.00  0.00    +0.000 A 
ATOM    703  N3  A   B  19     -15.548  -8.342   5.386  0.00  0.00    +0.000 NA
ATOM    704  C4  A   B  19     -16.887  -8.293   5.547  0.00  0.00    +0.000 A 
BRANCH 700 705
ATOM    705  N6  A   B  19     -18.117  -7.051   2.359  0.00  0.00    +0.000 N 
ATOM    706  H   A   B  19     -17.718  -6.777   1.502  0.00  0.00    +0.000 HD
ATOM    707  H   A   B  19     -19.093  -7.015   2.482  0.00  0.00    +0.000 HD
ENDBRANCH 700 705
ENDBRANCH 107 696
BRANCH 117 708
ATOM    708  N9  A   B  20     -14.464  -5.036   6.280  0.00  0.00    +0.000 N 
ATOM    709  C8  A   B  20     -15.794  -5.005   6.621  0.00  0.00    +0.000 A 
ATOM    710  N7  A   B  20     -16.586  -4.688   5.622  0.00  0.00    +0.000 NA
ATOM    711  C5  A   B  20     -15.721  -4.494   4.554  0.00  0.00    +0.000 A 
ATOM    712  C6  A   B  20     -15.934  -4.139   3.210  0.00  0.00    +0.000 A 
ATOM    713  N1  A   B  20     -14.853  -4.031   2.409  0.00  0.00    +0.000 NA
ATOM    714  C2  A   B  20     -13.641  -4.264   2.928  0.00  0.00    +0.000 A 
ATOM    715  N3  A   B  20     -13.310  -4.606   4.175  0.00  0.00    +0.000 NA
ATOM    716  C4  A   B  20     -14.410  -4.705   4.945  0.00  0.00    +0.000 A 
BRANCH 712 717
ATOM    717  N6  A   B  20     -17.145  -3.902   2.690  0.00  0.00    +0.000 N 
ATOM    718  H   A   B  20     -17.234  -3.657   1.741  0.00  0.00    +0.000 HD
ATOM    719  H   A   B  20     -17.947  -3.973   3.257  0.00  0.00    +0.000 HD
ENDBRANCH 712 717
ENDBRANCH 117 708
BRANCH   7 720
ATOM    720  N9  A   B   9     -21.392   4.479 -11.078  0.00  0.00    +0.000 N 
ATOM    721  C8  A   B   9     -20.846   4.505 -12.331  0.00  0.00    +0.000 A 
ATOM    722  N7  A   B   9     -21.673   4.164 -13.285  0.00  0.00    +0.000 NA
ATOM    723  C5  A   B   9     -22.852   3.893 -12.607  0.00  0.00    +0.000 A 
ATOM    724  C6  A   B   9     -24.128   3.483 -13.045  0.00  0.00    +0.000 A 
ATOM    725  N1  A   B   9     -25.088   3.305 -12.113  0.00  0.00    +0.000 NA
ATOM    726  C2  A   B   9     -24.783   3.529 -10.829  0.00  0.00    +0.000 A 
ATOM    727  N3  A   B   9     -23.621   3.915 -10.296  0.00  0.00    +0.000 NA
ATOM    728  C4  A   B   9     -22.692   4.081 -11.252  0.00  0.00    +0.000 A 
BRANCH 724 729
ATOM    729  N6  A   B   9     -24.434   3.264 -14.326  0.00  0.00    +0.000 N 
ATOM    730  H   A   B   9     -23.750   3.387 -15.023  0.00  0.00    +0.000 HD
ATOM    731  H   A   B   9     -25.343   2.979 -14.573  0.00  0.00    +0.000 HD
ENDBRANCH 724 729
ENDBRANCH   7 720
BRANCH  57 732
ATOM    732  N9  A   B  14     -16.753 -14.287   1.756  0.00  0.00    +0.000 N 
ATOM    733  C8  A   B  14     -15.935 -13.962   0.704  0.00  0.00    +0.000 A 
ATOM    734  N7  A   B  14     -16.556 -13.348  -0.275  0.00  0.00    +0.000 NA
ATOM    735  C5  A   B  14     -17.871 -13.263   0.163  0.00  0.00    +0.000 A 
ATOM    736  C6  A   B  14     -19.028 -12.720  -0.414  0.00  0.00    +0.000 A 
ATOM    737  N1  A   B  14     -20.177 -12.798   0.287  0.00  0.00    +0.000 NA
ATOM    738  C2  A   B  14     -20.155 -13.385   1.489  0.00  0.00    +0.000 A 
ATOM    739  N3  A   B  14     -19.132 -13.930   2.138  0.00  0.00    +0.000 NA
ATOM    740  C4  A   B  14     -18.005 -13.835   1.412  0.00  0.00    +0.000 A 
BRANCH 736 741
ATOM    741  N6  A   B  14     -19.049 -12.137  -1.621  0.00  0.00    +0.000 N 
ATOM    742  H   A   B  14     -18.221 -12.070  -2.150  0.00  0.00    +0.000 HD
ATOM    743  H   A   B  14     -19.892 -11.776  -1.979  0.00  0.00    +0.000 HD
ENDBRANCH 736 741
ENDBRANCH  57 732
BRANCH  67 744
ATOM    744  N1  U   B  15     -19.322 -23.457   1.329  0.00  0.00    +0.000 N 
ATOM    745  C2  U   B  15     -17.949 -23.600   1.456  0.00  0.00    +0.000 A 
ATOM    746  O2  U   B  15     -17.132 -22.766   1.089  0.00  0.00    +0.000 OA
ATOM    747  N3  U   B  15     -17.524 -24.776   2.026  0.00  0.00    +0.000 N 
ATOM    748  C4  U   B  15     -18.325 -25.810   2.473  0.00  0.00    +0.000 A 
ATOM    749  O4  U   B  15     -17.786 -26.808   2.965  0.00  0.00    +0.000 OA
ATOM    750  C5  U   B  15     -19.728 -25.597   2.313  0.00  0.00    +0.000 A 
ATOM    751  C6  U   B  15     -20.176 -24.453   1.755  0.00  0.00    +0.000 A 
ATOM    752  H   U   B  15     -16.552 -24.894   2.126  0.00  0.00    +0.000 HD
ENDBRANCH  67 744
BRANCH 127 753
ATOM    753  N9  A   B  21     -12.944  -1.056   4.609  0.00  0.00    +0.000 N 
ATOM    754  C8  A   B  21     -13.873  -1.248   5.601  0.00  0.00    +0.000 A 
ATOM    755  N7  A   B  21     -15.118  -1.180   5.183  0.00  0.00    +0.000 NA
ATOM    756  C5  A   B  21     -15.000  -0.921   3.825  0.00  0.00    +0.000 A 
ATOM    757  C6  A   B  21     -15.953  -0.737   2.808  0.00  0.00    +0.000 A 
ATOM    758  N1  A   B  21     -15.500  -0.497   1.559  0.00  0.00    +0.000 NA
ATOM    759  C2  A   B  21     -14.177  -0.447   1.353  0.00  0.00    +0.000 A 
ATOM    760  N3  A   B  21     -13.183  -0.605   2.228  0.00  0.00    +0.000 NA
ATOM    761  C4  A   B  21     -13.667  -0.842   3.460  0.00  0.00    +0.000 A 
BRANCH 757 762
ATOM    762  N6  A   B  21     -17.275  -0.783   3.014  0.00  0.00    +0.000 N 
ATOM    763  H   A   B  21     -17.895  -0.646   2.262  0.00  0.00    +0.000 HD
ATOM    764  H   A   B  21     -17.627  -0.953   3.918  0.00  0.00    +0.000 HD
ENDBRANCH 757 762
ENDBRANCH 127 753
BRANCH  37 765
ATOM    765  N1  U   B  12     -12.739  -6.775  -0.573  0.00  0.00    +0.000 N 
ATOM    766  C2  U   B  12     -13.336  -6.962   0.665  0.00  0.00    +0.000 A 
ATOM    767  O2  U   B  12     -12.704  -7.245   1.667  0.00  0.00    +0.000 OA
ATOM    768  N3  U   B  12     -14.703  -6.807   0.688  0.00  0.00    +0.000 N 
ATOM    769  C4  U   B  12     -15.516  -6.490  -0.379  0.00  0.00    +0.000 A 
ATOM    770  O4  U   B  12     -16.730  -6.386  -0.205  0.00  0.00    +0.000 OA
ATOM    771  C5  U   B  12     -14.830  -6.314  -1.624  0.00  0.00    +0.000 A 
ATOM    772  C6  U   B  12     -13.497  -6.458  -1.678  0.00  0.00    +0.000 A 
ATOM    773  H   U   B  12     -15.147  -6.936   1.557  0.00  0.00    +0.000 HD
ENDBRANCH  37 765
BRANCH 147 774
ATOM    774  N1  U   B  23     -16.294   6.619   1.220  0.00  0.00    +0.000 N 
ATOM    775  C2  U   B  23     -17.645   6.316   1.109  0.00  0.00    +0.000 A 
ATOM    776  O2  U   B  23     -18.299   6.573   0.115  0.00  0.00    +0.000 OA
ATOM    777  N3  U   B  23     -18.202   5.703   2.207  0.00  0.00    +0.000 N 
ATOM    778  C4  U   B  23     -17.562   5.369   3.381  0.00  0.00    +0.000 A 
ATOM    779  O4  U   B  23     -18.199   4.821   4.281  0.00  0.00    +0.000 OA
ATOM    780  C5  U   B  23     -16.173   5.715   3.420  0.00  0.00    +0.000 A 
ATOM    781  C6  U   B  23     -15.599   6.312   2.362  0.00  0.00    +0.000 A 
ATOM    782  H   U   B  23     -19.159   5.479   2.148  0.00  0.00    +0.000 HD
ENDBRANCH 147 774
BRANCH  27 783
ATOM    783  N1  U   B  11     -13.774  -2.616  -2.340  0.00  0.00    +0.000 N 
ATOM    784  C2  U   B  11     -13.663  -2.950  -1.004  0.00  0.00    +0.000 A 
ATOM    785  O2  U   B  11     -12.592  -3.066  -0.433  0.00  0.00    +0.000 OA
ATOM    786  N3  U   B  11     -14.858  -3.148  -0.348  0.00  0.00    +0.000 N 
ATOM    787  C4  U   B  11     -16.125  -3.047  -0.885  0.00  0.00    +0.000 A 
ATOM    788  O4  U   B  11     -17.103  -3.250  -0.172  0.00  0.00    +0.000 OA
ATOM    789  C5  U   B  11     -16.157  -2.699  -2.273  0.00  0.00    +0.000 A 
ATOM    790  C6  U   B  11     -15.010  -2.501  -2.936  0.00  0.00    +0.000 A 
ATOM    791  H   U   B  11     -14.802  -3.387   0.605  0.00  0.00    +0.000 HD
ENDBRANCH  27 783
BRANCH 157 792
ATOM    792  N1  U   B  24     -19.973   9.535   1.726  0.00  0.00    +0.000 N 
ATOM    793  C2  U   B  24     -21.083   8.894   2.259  0.00  0.00    +0.000 A 
ATOM    794  O2  U   B  24     -22.185   8.942   1.743  0.00  0.00    +0.000 OA
ATOM    795  N3  U   B  24     -20.856   8.199   3.423  0.00  0.00    +0.000 N 
ATOM    796  C4  U   B  24     -19.656   8.078   4.095  0.00  0.00    +0.000 A 
ATOM    797  O4  U   B  24     -19.607   7.415   5.132  0.00  0.00    +0.000 OA
ATOM    798  C5  U   B  24     -18.559   8.767   3.484  0.00  0.00    +0.000 A 
ATOM    799  C6  U   B  24     -18.751   9.454   2.348  0.00  0.00    +0.000 A 
ATOM    800  H   U   B  24     -21.631   7.739   3.819  0.00  0.00    +0.000 HD
ENDBRANCH 157 792
BRANCH  17 801
ATOM    801  N1  U   B  10     -16.744   0.807  -2.959  0.00  0.00    +0.000 N 
ATOM    802  C2  U   B  10     -16.045   0.599  -1.785  0.00  0.00    +0.000 A 
ATOM    803  O2  U   B  10     -14.834   0.661  -1.720  0.00  0.00    +0.000 OA
ATOM    804  N3  U   B  10     -16.824   0.315  -0.686  0.00  0.00    +0.000 N 
ATOM    805  C4  U   B  10     -18.199   0.227  -0.646  0.00  0.00    +0.000 A 
ATOM    806  O4  U   B  10     -18.753  -0.034   0.415  0.00  0.00    +0.000 OA
ATOM    807  C5  U   B  10     -18.847   0.460  -1.905  0.00  0.00    +0.000 A 
ATOM    808  C6  U   B  10     -18.122   0.737  -2.989  0.00  0.00    +0.000 A 
ATOM    809  H   U   B  10     -16.348   0.158   0.162  0.00  0.00    +0.000 HD
ENDBRANCH  17 801
BRANCH 487 810
ATOM    810  N9  A   B  57     -26.302   5.206   6.580  0.00  0.00    +0.000 N 
ATOM    811  C8  A   B  57     -25.666   4.363   7.456  0.00  0.00    +0.000 A 
ATOM    812  N7  A   B  57     -24.356   4.410   7.376  0.00  0.00    +0.000 NA
ATOM    813  C5  A   B  57     -24.114   5.350   6.379  0.00  0.00    +0.000 A 
ATOM    814  C6  A   B  57     -22.926   5.857   5.819  0.00  0.00    +0.000 A 
ATOM    815  N1  A   B  57     -23.036   6.784   4.843  0.00  0.00    +0.000 NA
ATOM    816  C2  A   B  57     -24.255   7.174   4.458  0.00  0.00    +0.000 A 
ATOM    817  N3  A   B  57     -25.444   6.772   4.908  0.00  0.00    +0.000 NA
ATOM    818  C4  A   B  57     -25.302   5.847   5.880  0.00  0.00    +0.000 A 
BRANCH 814 819
ATOM    819  N6  A   B  57     -21.700   5.463   6.201  0.00  0.00    +0.000 N 
ATOM    820  H   A   B  57     -20.903   5.852   5.774  0.00  0.00    +0.000 HD
ATOM    821  H   A   B  57     -21.599   4.785   6.908  0.00  0.00    +0.000 HD
ENDBRANCH 814 819
ENDBRANCH 487 810
BRANCH 277 822
ATOM    822  N1  U   B  36     -17.867  36.674  21.776  0.00  0.00    +0.000 N 
ATOM    823  C2  U   B  36     -18.066  35.608  22.638  0.00  0.00    +0.000 A 
ATOM    824  O2  U   B  36     -19.173  35.165  22.901  0.00  0.00    +0.000 OA
ATOM    825  N3  U   B  36     -16.925  35.074  23.188  0.00  0.00    +0.000 N 
ATOM    826  C4  U   B  36     -15.625  35.488  22.969  0.00  0.00    +0.000 A 
ATOM    827  O4  U   B  36     -14.701  34.906  23.538  0.00  0.00    +0.000 OA
ATOM    828  C5  U   B  36     -15.499  36.593  22.066  0.00  0.00    +0.000 A 
ATOM    829  C6  U   B  36     -16.600  37.135  21.514  0.00  0.00    +0.000 A 
ATOM    830  H   U   B  36     -17.047  34.316  23.804  0.00  0.00    +0.000 HD
ENDBRANCH 277 822
BRANCH 377 831
ATOM    831  N1  U   B  46     -21.951  31.814  21.888  0.00  0.00    +0.000 N 
ATOM    832  C2  U   B  46     -20.908  32.454  21.237  0.00  0.00    +0.000 A 
ATOM    833  O2  U   B  46     -21.088  33.338  20.417  0.00  0.00    +0.000 OA
ATOM    834  N3  U   B  46     -19.645  32.020  21.574  0.00  0.00    +0.000 N 
ATOM    835  C4  U   B  46     -19.325  31.030  22.481  0.00  0.00    +0.000 A 
ATOM    836  O4  U   B  46     -18.139  30.752  22.678  0.00  0.00    +0.000 OA
ATOM    837  C5  U   B  46     -20.456  30.416  23.112  0.00  0.00    +0.000 A 
ATOM    838  C6  U   B  46     -21.699  30.818  22.804  0.00  0.00    +0.000 A 
ATOM    839  H   U   B  46     -18.891  32.462  21.120  0.00  0.00    +0.000 HD
ENDBRANCH 377 831
BRANCH 367 840
ATOM    840  N1  U   B  45     -21.578  32.630  26.244  0.00  0.00    +0.000 N 
ATOM    841  C2  U   B  45     -21.320  33.541  25.231  0.00  0.00    +0.000 A 
ATOM    842  O2  U   B  45     -22.186  34.229  24.720  0.00  0.00    +0.000 OA
ATOM    843  N3  U   B  45     -20.008  33.609  24.827  0.00  0.00    +0.000 N 
ATOM    844  C4  U   B  45     -18.945  32.879  25.320  0.00  0.00    +0.000 A 
ATOM    845  O4  U   B  45     -17.819  33.058  24.851  0.00  0.00    +0.000 OA
ATOM    846  C5  U   B  45     -19.290  31.964  26.365  0.00  0.00    +0.000 A 
ATOM    847  C6  U   B  45     -20.564  31.875  26.784  0.00  0.00    +0.000 A 
ATOM    848  H   U   B  45     -19.804  34.249  24.107  0.00  0.00    +0.000 HD
ENDBRANCH 367 840
BRANCH 407 849
ATOM    849  N1  U   B  49     -14.779  27.492  11.308  0.00  0.00    +0.000 N 
ATOM    850  C2  U   B  49     -13.820  27.138  12.244  0.00  0.00    +0.000 A 
ATOM    851  O2  U   B  49     -12.629  27.350  12.084  0.00  0.00    +0.000 OA
ATOM    852  N3  U   B  49     -14.305  26.526  13.378  0.00  0.00    +0.000 N 
ATOM    853  C4  U   B  49     -15.624  26.236  13.665  0.00  0.00    +0.000 A 
ATOM    854  O4  U   B  49     -15.906  25.679  14.728  0.00  0.00    +0.000 OA
ATOM    855  C5  U   B  49     -16.552  26.630  12.650  0.00  0.00    +0.000 A 
ATOM    856  C6  U   B  49     -16.110  27.230  11.533  0.00  0.00    +0.000 A 
ATOM    857  H   U   B  49     -13.640  26.268  14.057  0.00  0.00    +0.000 HD
ENDBRANCH 407 849
BRANCH 347 858
ATOM    858  N9  A   B  43     -17.197  30.018  36.861  0.00  0.00    +0.000 N 
ATOM    859  C8  A   B  43     -16.052  30.682  36.505  0.00  0.00    +0.000 A 
ATOM    860  N7  A   B  43     -16.239  31.952  36.239  0.00  0.00    +0.000 NA
ATOM    861  C5  A   B  43     -17.601  32.137  36.435  0.00  0.00    +0.000 A 
ATOM    862  C6  A   B  43     -18.431  33.264  36.319  0.00  0.00    +0.000 A 
ATOM    863  N1  A   B  43     -19.745  33.111  36.588  0.00  0.00    +0.000 NA
ATOM    864  C2  A   B  43     -20.186  31.898  36.953  0.00  0.00    +0.000 A 
ATOM    865  N3  A   B  43     -19.503  30.765  37.098  0.00  0.00    +0.000 NA
ATOM    866  C4  A   B  43     -18.201  30.956  36.820  0.00  0.00    +0.000 A 
BRANCH 862 867
ATOM    867  N6  A   B  43     -17.990  34.476  35.955  0.00  0.00    +0.000 N 
ATOM    868  H   A   B  43     -17.036  34.613  35.754  0.00  0.00    +0.000 HD
ATOM    869  H   A   B  43     -18.620  35.230  35.889  0.00  0.00    +0.000 HD
ENDBRANCH 862 867
ENDBRANCH 347 858
BRANCH 337 870
ATOM    870  N1  U   B  42     -13.760  31.289  39.551  0.00  0.00    +0.000 N 
ATOM    871  C2  U   B  42     -14.927  31.059  40.260  0.00  0.00    +0.000 A 
ATOM    872  O2  U   B  42     -15.100  30.061  40.945  0.00  0.00    +0.000 OA
ATOM    873  N3  U   B  42     -15.888  32.035  40.139  0.00  0.00    +0.000 N 
ATOM    874  C4  U   B  42     -15.800  33.199  39.399  0.00  0.00    +0.000 A 
ATOM    875  O4  U   B  42     -16.750  33.981  39.390  0.00  0.00    +0.000 OA
ATOM    876  C5  U   B  42     -14.565  33.366  38.697  0.00  0.00    +0.000 A 
ATOM    877  C6  U   B  42     -13.610  32.430  38.795  0.00  0.00    +0.000 A 
ATOM    878  H   U   B  42     -16.728  31.889  40.632  0.00  0.00    +0.000 HD
ENDBRANCH 337 870
BRANCH 417 879
ATOM    879  N1  U   B  50     -12.204  23.753  11.082  0.00  0.00    +0.000 N 
ATOM    880  C2  U   B  50     -11.927  23.338  12.374  0.00  0.00    +0.000 A 
ATOM    881  O2  U   B  50     -10.792  23.198  12.796  0.00  0.00    +0.000 OA
ATOM    882  N3  U   B  50     -13.031  23.091  13.160  0.00  0.00    +0.000 N 
ATOM    883  C4  U   B  50     -14.354  23.213  12.793  0.00  0.00    +0.000 A 
ATOM    884  O4  U   B  50     -15.237  22.954  13.612  0.00  0.00    +0.000 OA
ATOM    885  C5  U   B  50     -14.559  23.646  11.443  0.00  0.00    +0.000 A 
ATOM    886  C6  U   B  50     -13.504  23.895  10.652  0.00  0.00    +0.000 A 
ATOM    887  H   U   B  50     -12.856  22.796  14.083  0.00  0.00    +0.000 HD
ENDBRANCH 417 879
BRANCH 327 888
ATOM    888  N1  U   B  41     -12.352  36.525  39.496  0.00  0.00    +0.000 N 
ATOM    889  C2  U   B  41     -13.180  36.002  40.474  0.00  0.00    +0.000 A 
ATOM    890  O2  U   B  41     -12.770  35.290  41.379  0.00  0.00    +0.000 OA
ATOM    891  N3  U   B  41     -14.507  36.339  40.357  0.00  0.00    +0.000 N 
ATOM    892  C4  U   B  41     -15.079  37.133  39.381  0.00  0.00    +0.000 A 
ATOM    893  O4  U   B  41     -16.289  37.347  39.412  0.00  0.00    +0.000 OA
ATOM    894  C5  U   B  41     -14.162  37.635  38.409  0.00  0.00    +0.000 A 
ATOM    895  C6  U   B  41     -12.859  37.326  38.497  0.00  0.00    +0.000 A 
ATOM    896  H   U   B  41     -15.115  35.976  41.041  0.00  0.00    +0.000 HD
ENDBRANCH 327 888
BRANCH 427 897
ATOM    897  N1  U   B  51     -11.022  19.517  12.428  0.00  0.00    +0.000 N 
ATOM    898  C2  U   B  51     -11.495  19.249  13.703  0.00  0.00    +0.000 A 
ATOM    899  O2  U   B  51     -10.768  18.917  14.624  0.00  0.00    +0.000 OA
ATOM    900  N3  U   B  51     -12.856  19.384  13.862  0.00  0.00    +0.000 N 
ATOM    901  C4  U   B  51     -13.771  19.749  12.899  0.00  0.00    +0.000 A 
ATOM    902  O4  U   B  51     -14.964  19.827  13.195  0.00  0.00    +0.000 OA
ATOM    903  C5  U   B  51     -13.205  20.008  11.608  0.00  0.00    +0.000 A 
ATOM    904  C6  U   B  51     -11.883  19.887  11.421  0.00  0.00    +0.000 A 
ATOM    905  H   U   B  51     -13.214  19.200  14.761  0.00  0.00    +0.000 HD
ENDBRANCH 427 897
BRANCH 307 906
ATOM    906  N1  U   B  39     -16.777  45.538  30.707  0.00  0.00    +0.000 N 
ATOM    907  C2  U   B  39     -16.112  46.025  29.596  0.00  0.00    +0.000 A 
ATOM    908  O2  U   B  39     -15.540  45.302  28.799  0.00  0.00    +0.000 OA
ATOM    909  N3  U   B  39     -16.135  47.396  29.456  0.00  0.00    +0.000 N 
ATOM    910  C4  U   B  39     -16.749  48.310  30.293  0.00  0.00    +0.000 A 
ATOM    911  O4  U   B  39     -16.687  49.504  30.030  0.00  0.00    +0.000 OA
ATOM    912  C5  U   B  39     -17.415  47.728  31.415  0.00  0.00    +0.000 A 
ATOM    913  C6  U   B  39     -17.411  46.391  31.582  0.00  0.00    +0.000 A 
ATOM    914  H   U   B  39     -15.663  47.765  28.675  0.00  0.00    +0.000 HD
ENDBRANCH 307 906
BRANCH 437 915
ATOM    915  N1  U   B  52     -11.635  15.347  14.401  0.00  0.00    +0.000 N 
ATOM    916  C2  U   B  52     -12.681  15.388  15.309  0.00  0.00    +0.000 A 
ATOM    917  O2  U   B  52     -12.559  15.059  16.476  0.00  0.00    +0.000 OA
ATOM    918  N3  U   B  52     -13.880  15.831  14.801  0.00  0.00    +0.000 N 
ATOM    919  C4  U   B  52     -14.136  16.226  13.506  0.00  0.00    +0.000 A 
ATOM    920  O4  U   B  52     -15.269  16.599  13.197  0.00  0.00    +0.000 OA
ATOM    921  C5  U   B  52     -13.006  16.154  12.628  0.00  0.00    +0.000 A 
ATOM    922  C6  U   B  52     -11.824  15.729  13.094  0.00  0.00    +0.000 A 
ATOM    923  H   U   B  52     -14.636  15.870  15.430  0.00  0.00    +0.000 HD
ENDBRANCH 437 915
BRANCH 297 924
ATOM    924  N1  U   B  38     -19.070  38.174  31.208  0.00  0.00    +0.000 N 
ATOM    925  C2  U   B  38     -18.054  37.348  31.655  0.00  0.00    +0.000 A 
ATOM    926  O2  U   B  38     -18.175  36.613  32.623  0.00  0.00    +0.000 OA
ATOM    927  N3  U   B  38     -16.884  37.416  30.936  0.00  0.00    +0.000 N 
ATOM    928  C4  U   B  38     -16.632  38.204  29.829  0.00  0.00    +0.000 A 
ATOM    929  O4  U   B  38     -15.527  38.152  29.289  0.00  0.00    +0.000 OA
ATOM    930  C5  U   B  38     -17.732  39.028  29.426  0.00  0.00    +0.000 A 
ATOM    931  C6  U   B  38     -18.889  38.983  30.111  0.00  0.00    +0.000 A 
ATOM    932  H   U   B  38     -16.146  36.841  31.243  0.00  0.00    +0.000 HD
ENDBRANCH 297 924
BRANCH 447 933
ATOM    933  N9  A   B  53     -14.123  11.727  16.022  0.00  0.00    +0.000 N 
ATOM    934  C8  A   B  53     -13.685  12.089  14.772  0.00  0.00    +0.000 A 
ATOM    935  N7  A   B  53     -14.591  12.703  14.050  0.00  0.00    +0.000 NA
ATOM    936  C5  A   B  53     -15.706  12.749  14.875  0.00  0.00    +0.000 A 
ATOM    937  C6  A   B  53     -16.997  13.271  14.700  0.00  0.00    +0.000 A 
ATOM    938  N1  A   B  53     -17.870  13.150  15.723  0.00  0.00    +0.000 NA
ATOM    939  C2  A   B  53     -17.465  12.544  16.846  0.00  0.00    +0.000 A 
ATOM    940  N3  A   B  53     -16.273  12.014  17.133  0.00  0.00    +0.000 NA
ATOM    941  C4  A   B  53     -15.430  12.150  16.094  0.00  0.00    +0.000 A 
BRANCH 937 942
ATOM    942  N6  A   B  53     -17.403  13.876  13.574  0.00  0.00    +0.000 N 
ATOM    943  H   A   B  53     -16.782  13.974  12.817  0.00  0.00    +0.000 HD
ATOM    944  H   A   B  53     -18.322  14.222  13.505  0.00  0.00    +0.000 HD
ENDBRANCH 937 942
ENDBRANCH 447 933
BRANCH 167 945
ATOM    945  N1  U   B  25     -23.321  11.558   4.173  0.00  0.00    +0.000 N 
ATOM    946  C2  U   B  25     -23.794  10.636   5.096  0.00  0.00    +0.000 A 
ATOM    947  O2  U   B  25     -24.972  10.343   5.195  0.00  0.00    +0.000 OA
ATOM    948  N3  U   B  25     -22.834  10.067   5.899  0.00  0.00    +0.000 N 
ATOM    949  C4  U   B  25     -21.477  10.323   5.877  0.00  0.00    +0.000 A 
ATOM    950  O4  U   B  25     -20.736   9.732   6.665  0.00  0.00    +0.000 OA
ATOM    951  C5  U   B  25     -21.069  11.286   4.902  0.00  0.00    +0.000 A 
ATOM    952  C6  U   B  25     -21.983  11.857   4.103  0.00  0.00    +0.000 A 
ATOM    953  H   U   B  25     -23.147   9.407   6.559  0.00  0.00    +0.000 HD
ENDBRANCH 167 945
BRANCH 457 954
ATOM    954  N9  A   B  54     -17.927   8.865  16.358  0.00  0.00    +0.000 N 
ATOM    955  C8  A   B  54     -16.926   8.940  15.422  0.00  0.00    +0.000 A 
ATOM    956  N7  A   B  54     -17.243   9.651  14.366  0.00  0.00    +0.000 NA
ATOM    957  C5  A   B  54     -18.540  10.072  14.618  0.00  0.00    +0.000 A 
ATOM    958  C6  A   B  54     -19.444  10.860  13.886  0.00  0.00    +0.000 A 
ATOM    959  N1  A   B  54     -20.660  11.089  14.425  0.00  0.00    +0.000 NA
ATOM    960  C2  A   B  54     -20.944  10.558  15.621  0.00  0.00    +0.000 A 
ATOM    961  N3  A   B  54     -20.178   9.803  16.409  0.00  0.00    +0.000 NA
ATOM    962  C4  A   B  54     -18.974   9.594  15.843  0.00  0.00    +0.000 A 
BRANCH 958 963
ATOM    963  N6  A   B  54     -19.160  11.386  12.686  0.00  0.00    +0.000 N 
ATOM    964  H   A   B  54     -19.832  11.931  12.216  0.00  0.00    +0.000 HD
ATOM    965  H   A   B  54     -18.280  11.227  12.275  0.00  0.00    +0.000 HD
ENDBRANCH 958 963
ENDBRANCH 457 954
BRANCH 467 966
ATOM    966  N9  A   B  55     -21.872   7.160  14.609  0.00  0.00    +0.000 N 
ATOM    967  C8  A   B  55     -20.576   6.857  14.272  0.00  0.00    +0.000 A 
ATOM    968  N7  A   B  55     -20.165   7.447  13.176  0.00  0.00    +0.000 NA
ATOM    969  C5  A   B  55     -21.261   8.188  12.758  0.00  0.00    +0.000 A 
ATOM    970  C6  A   B  55     -21.473   9.037  11.660  0.00  0.00    +0.000 A 
ATOM    971  N1  A   B  55     -22.685   9.619  11.538  0.00  0.00    +0.000 NA
ATOM    972  C2  A   B  55     -23.617   9.361  12.462  0.00  0.00    +0.000 A 
ATOM    973  N3  A   B  55     -23.538   8.584  13.540  0.00  0.00    +0.000 NA
ATOM    974  C4  A   B  55     -22.319   8.019  13.632  0.00  0.00    +0.000 A 
BRANCH 970 975
ATOM    975  N6  A   B  55     -20.539   9.292  10.731  0.00  0.00    +0.000 N 
ATOM    976  H   A   B  55     -20.743   9.896   9.981  0.00  0.00    +0.000 HD
ATOM    977  H   A   B  55     -19.650   8.875  10.799  0.00  0.00    +0.000 HD
ENDBRANCH 970 975
ENDBRANCH 467 966
BRANCH 247 978
ATOM    978  N1  U   B  33      -9.730  29.109  16.418  0.00  0.00    +0.000 N 
ATOM    979  C2  U   B  33     -10.981  29.261  15.843  0.00  0.00    +0.000 A 
ATOM    980  O2  U   B  33     -11.143  29.690  14.714  0.00  0.00    +0.000 OA
ATOM    981  N3  U   B  33     -12.041  28.888  16.640  0.00  0.00    +0.000 N 
ATOM    982  C4  U   B  33     -11.977  28.393  17.927  0.00  0.00    +0.000 A 
ATOM    983  O4  U   B  33     -13.018  28.105  18.518  0.00  0.00    +0.000 OA
ATOM    984  C5  U   B  33     -10.652  28.269  18.451  0.00  0.00    +0.000 A 
ATOM    985  C6  U   B  33      -9.600  28.624  17.697  0.00  0.00    +0.000 A 
ATOM    986  H   U   B  33     -12.940  28.985  16.250  0.00  0.00    +0.000 HD
ENDBRANCH 247 978
BRANCH 237 987
ATOM    987  N9  A   B  32      -9.396  24.705  17.759  0.00  0.00    +0.000 N 
ATOM    988  C8  A   B  32     -10.156  24.519  18.887  0.00  0.00    +0.000 A 
ATOM    989  N7  A   B  32     -11.434  24.753  18.706  0.00  0.00    +0.000 NA
ATOM    990  C5  A   B  32     -11.524  25.120  17.369  0.00  0.00    +0.000 A 
ATOM    991  C6  A   B  32     -12.610  25.493  16.558  0.00  0.00    +0.000 A 
ATOM    992  N1  A   B  32     -12.356  25.798  15.270  0.00  0.00    +0.000 NA
ATOM    993  C2  A   B  32     -11.096  25.732  14.828  0.00  0.00    +0.000 A 
ATOM    994  N3  A   B  32      -9.990  25.394  15.494  0.00  0.00    +0.000 NA
ATOM    995  C4  A   B  32     -10.277  25.096  16.775  0.00  0.00    +0.000 A 
BRANCH 991 996
ATOM    996  N6  A   B  32     -13.874  25.563  17.003  0.00  0.00    +0.000 N 
ATOM    997  H   A   B  32     -14.597  25.830  16.391  0.00  0.00    +0.000 HD
ATOM    998  H   A   B  32     -14.078  25.347  17.942  0.00  0.00    +0.000 HD
ENDBRANCH 991 996
ENDBRANCH 237 987
BRANCH 477 999
ATOM    999  N9  A   B  56     -25.004   6.194  11.175  0.00  0.00    +0.000 N 
ATOM   1000  C8  A   B  56     -23.842   5.556  11.535  0.00  0.00    +0.000 A 
ATOM   1001  N7  A   B  56     -22.816   5.858  10.774  0.00  0.00    +0.000 NA
ATOM   1002  C5  A   B  56     -23.333   6.755   9.851  0.00  0.00    +0.000 A 
ATOM   1003  C6  A   B  56     -22.758   7.449   8.773  0.00  0.00    +0.000 A 
ATOM   1004  N1  A   B  56     -23.555   8.265   8.051  0.00  0.00    +0.000 NA
ATOM   1005  C2  A   B  56     -24.844   8.375   8.394  0.00  0.00    +0.000 A 
ATOM   1006  N3  A   B  56     -25.502   7.776   9.387  0.00  0.00    +0.000 NA
ATOM   1007  C4  A   B  56     -24.679   6.971  10.085  0.00  0.00    +0.000 A 
BRANCH10031008
ATOM   1008  N6  A   B  56     -21.466   7.337   8.427  0.00  0.00    +0.000 N 
ATOM   1009  H   A   B  56     -21.115   7.847   7.662  0.00  0.00    +0.000 HD
ATOM   1010  H   A   B  56     -20.869   6.745   8.939  0.00  0.00    +0.000 HD
ENDBRANCH10031008
ENDBRANCH 477 999
BRANCH 2271011
ATOM   1011  N9  A   B  31     -11.438  20.814  19.469  0.00  0.00    +0.000 N 
ATOM   1012  C8  A   B  31     -12.645  21.007  20.093  0.00  0.00    +0.000 A 
ATOM   1013  N7  A   B  31     -13.569  21.516  19.310  0.00  0.00    +0.000 NA
ATOM   1014  C5  A   B  31     -12.928  21.674  18.088  0.00  0.00    +0.000 A 
ATOM   1015  C6  A   B  31     -13.359  22.166  16.844  0.00  0.00    +0.000 A 
ATOM   1016  N1  A   B  31     -12.467  22.186  15.833  0.00  0.00    +0.000 NA
ATOM   1017  C2  A   B  31     -11.226  21.740  16.059  0.00  0.00    +0.000 A 
ATOM   1018  N3  A   B  31     -10.701  21.252  17.184  0.00  0.00    +0.000 NA
ATOM   1019  C4  A   B  31     -11.615  21.246  18.174  0.00  0.00    +0.000 A 
BRANCH10151020
ATOM   1020  N6  A   B  31     -14.602  22.616  16.621  0.00  0.00    +0.000 N 
ATOM   1021  H   A   B  31     -14.852  22.950  15.729  0.00  0.00    +0.000 HD
ATOM   1022  H   A   B  31     -15.265  22.612  17.349  0.00  0.00    +0.000 HD
ENDBRANCH10151020
ENDBRANCH 2271011
BRANCH 2171023
ATOM   1023  N9  A   B  30     -14.967  17.773  20.261  0.00  0.00    +0.000 N 
ATOM   1024  C8  A   B  30     -16.243  18.278  20.226  0.00  0.00    +0.000 A 
ATOM   1025  N7  A   B  30     -16.555  18.842  19.083  0.00  0.00    +0.000 NA
ATOM   1026  C5  A   B  30     -15.409  18.704  18.312  0.00  0.00    +0.000 A 
ATOM   1027  C6  A   B  30     -15.091  19.093  17.000  0.00  0.00    +0.000 A 
ATOM   1028  N1  A   B  30     -13.858  18.802  16.538  0.00  0.00    +0.000 NA
ATOM   1029  C2  A   B  30     -13.003  18.161  17.342  0.00  0.00    +0.000 A 
ATOM   1030  N3  A   B  30     -13.184  17.739  18.595  0.00  0.00    +0.000 NA
ATOM   1031  C4  A   B  30     -14.423  18.047  19.026  0.00  0.00    +0.000 A 
BRANCH10271032
ATOM   1032  N6  A   B  30     -15.946  19.738  16.195  0.00  0.00    +0.000 N 
ATOM   1033  H   A   B  30     -15.671  19.987  15.283  0.00  0.00    +0.000 HD
ATOM   1034  H   A   B  30     -16.849  19.963  16.515  0.00  0.00    +0.000 HD
ENDBRANCH10271032
ENDBRANCH 2171023
BRANCH 3871035
ATOM   1035  N1  U   B  47     -20.604  31.371  17.275  0.00  0.00    +0.000 N 
ATOM   1036  C2  U   B  47     -19.274  31.700  17.054  0.00  0.00    +0.000 A 
ATOM   1037  O2  U   B  47     -18.925  32.530  16.231  0.00  0.00    +0.000 OA
ATOM   1038  N3  U   B  47     -18.363  31.019  17.829  0.00  0.00    +0.000 N 
ATOM   1039  C4  U   B  47     -18.640  30.062  18.785  0.00  0.00    +0.000 A 
ATOM   1040  O4  U   B  47     -17.711  29.536  19.404  0.00  0.00    +0.000 OA
ATOM   1041  C5  U   B  47     -20.034  29.776  18.955  0.00  0.00    +0.000 A 
ATOM   1042  C6  U   B  47     -20.947  30.424  18.214  0.00  0.00    +0.000 A 
ATOM   1043  H   U   B  47     -17.414  31.237  17.687  0.00  0.00    +0.000 HD
ENDBRANCH 3871035
BRANCH 2071044
ATOM   1044  N9  A   B  29     -18.985  15.513  19.416  0.00  0.00    +0.000 N 
ATOM   1045  C8  A   B  29     -19.960  16.211  18.752  0.00  0.00    +0.000 A 
ATOM   1046  N7  A   B  29     -19.577  16.668  17.582  0.00  0.00    +0.000 NA
ATOM   1047  C5  A   B  29     -18.260  16.246  17.468  0.00  0.00    +0.000 A 
ATOM   1048  C6  A   B  29     -17.292  16.405  16.462  0.00  0.00    +0.000 A 
ATOM   1049  N1  A   B  29     -16.077  15.859  16.663  0.00  0.00    +0.000 NA
ATOM   1050  C2  A   B  29     -15.852  15.195  17.802  0.00  0.00    +0.000 A 
ATOM   1051  N3  A   B  29     -16.680  14.975  18.825  0.00  0.00    +0.000 NA
ATOM   1052  C4  A   B  29     -17.882  15.533  18.591  0.00  0.00    +0.000 A 
BRANCH10481053
ATOM   1053  N6  A   B  29     -17.516  17.073  15.320  0.00  0.00    +0.000 N 
ATOM   1054  H   A   B  29     -16.801  17.154  14.648  0.00  0.00    +0.000 HD
ATOM   1055  H   A   B  29     -18.396  17.482  15.154  0.00  0.00    +0.000 HD
ENDBRANCH10481053
ENDBRANCH 2071044
BRANCH 1971056
ATOM   1056  N1  U   B  28     -22.653  14.183  16.809  0.00  0.00    +0.000 N 
ATOM   1057  C2  U   B  28     -21.349  13.714  16.738  0.00  0.00    +0.000 A 
ATOM   1058  O2  U   B  28     -20.884  12.935  17.553  0.00  0.00    +0.000 OA
ATOM   1059  N3  U   B  28     -20.609  14.190  15.680  0.00  0.00    +0.000 N 
ATOM   1060  C4  U   B  28     -21.032  15.070  14.705  0.00  0.00    +0.000 A 
ATOM   1061  O4  U   B  28     -20.249  15.408  13.815  0.00  0.00    +0.000 OA
ATOM   1062  C5  U   B  28     -22.389  15.511  14.848  0.00  0.00    +0.000 A 
ATOM   1063  C6  U   B  28     -23.134  15.063  15.870  0.00  0.00    +0.000 A 
ATOM   1064  H   U   B  28     -19.681  13.869  15.612  0.00  0.00    +0.000 HD
ENDBRANCH 1971056
BRANCH 1871065
ATOM   1065  N1  U   B  27     -24.963  13.264  12.916  0.00  0.00    +0.000 N 
ATOM   1066  C2  U   B  27     -23.983  12.479  13.506  0.00  0.00    +0.000 A 
ATOM   1067  O2  U   B  27     -24.212  11.725  14.435  0.00  0.00    +0.000 OA
ATOM   1068  N3  U   B  27     -22.722  12.610  12.969  0.00  0.00    +0.000 N 
ATOM   1069  C4  U   B  27     -22.351  13.431  11.923  0.00  0.00    +0.000 A 
ATOM   1070  O4  U   B  27     -21.175  13.439  11.548  0.00  0.00    +0.000 OA
ATOM   1071  C5  U   B  27     -23.418  14.211  11.368  0.00  0.00    +0.000 A 
ATOM   1072  C6  U   B  27     -24.657  14.103  11.871  0.00  0.00    +0.000 A 
ATOM   1073  H   U   B  27     -22.011  12.061  13.373  0.00  0.00    +0.000 HD
ENDBRANCH 1871065
BRANCH 1771074
ATOM   1074  N1  U   B  26     -25.168  12.628   8.261  0.00  0.00    +0.000 N 
ATOM   1075  C2  U   B  26     -24.847  11.667   9.207  0.00  0.00    +0.000 A 
ATOM   1076  O2  U   B  26     -25.688  11.079   9.865  0.00  0.00    +0.000 OA
ATOM   1077  N3  U   B  26     -23.502  11.418   9.357  0.00  0.00    +0.000 N 
ATOM   1078  C4  U   B  26     -22.468  12.022   8.671  0.00  0.00    +0.000 A 
ATOM   1079  O4  U   B  26     -21.305  11.692   8.916  0.00  0.00    +0.000 OA
ATOM   1080  C5  U   B  26     -22.881  13.004   7.714  0.00  0.00    +0.000 A 
ATOM   1081  C6  U   B  26     -24.185  13.266   7.545  0.00  0.00    +0.000 A 
ATOM   1082  H   U   B  26     -23.251  10.738  10.023  0.00  0.00    +0.000 HD
ENDBRANCH 1771074
BRANCH 3961083
ATOM   1083  O2' A   B  48     -17.700  31.166   9.994  0.00  0.00    +0.000 OA
ATOM   1084  H   A   B  48     -18.372  31.863   9.933  0.00  0.00    +0.000 HD
ENDBRANCH 3961083
BRANCH 4581085
ATOM   1085  OP1 A   B  55     -18.444   2.165  16.941  0.00  0.00    +0.000 OA
ATOM   1086  H   A   B  55     -18.783   1.556  16.267  0.00  0.00    +0.000 HD
ENDBRANCH 4581085
BRANCH 4061087
ATOM   1087  O2' U   B  49     -12.785  27.743   8.263  0.00  0.00    +0.000 OA
ATOM   1088  H   U   B  49     -13.105  28.576   7.882  0.00  0.00    +0.000 HD
ENDBRANCH 4061087
BRANCH 4661089
ATOM   1089  O2' A   B  55     -24.793   5.681  16.201  0.00  0.00    +0.000 OA
ATOM   1090  H   A   B  55     -24.516   5.638  17.130  0.00  0.00    +0.000 HD
ENDBRANCH 4661089
BRANCH 3981091
ATOM   1091  OP2 U   B  49     -19.974  26.879   9.958  0.00  0.00    +0.000 OA
ATOM   1092  H   U   B  49     -19.869  25.956   9.679  0.00  0.00    +0.000 HD
ENDBRANCH 3981091
BRANCH 3881093
ATOM   1093  OP2 A   B  48     -22.792  27.799  14.233  0.00  0.00    +0.000 OA
ATOM   1094  H   A   B  48     -22.516  26.998  13.761  0.00  0.00    +0.000 HD
ENDBRANCH 3881093
BRANCH 4681095
ATOM   1095  OP1 A   B  56     -24.623   0.999  15.068  0.00  0.00    +0.000 OA
ATOM   1096  H   A   B  56     -24.801   0.391  14.334  0.00  0.00    +0.000 HD
ENDBRANCH 4681095
BRANCH 3481097
ATOM   1097  OP2 C   B  44     -15.869  26.894  32.519  0.00  0.00    +0.000 OA
ATOM   1098  H   C   B  44     -15.854  26.966  31.552  0.00  0.00    +0.000 HD
ENDBRANCH 3481097
BRANCH 4181099
ATOM   1099  OP2 U   B  51     -12.496  20.223   7.247  0.00  0.00    +0.000 OA
ATOM   1100  H   U   B  51     -12.900  20.632   6.466  0.00  0.00    +0.000 HD
ENDBRANCH 4181099
BRANCH 4281101
ATOM   1101  OP2 U   B  52     -10.421  15.521   9.120  0.00  0.00    +0.000 OA
ATOM   1102  H   U   B  52     -10.315  15.883   8.226  0.00  0.00    +0.000 HD
ENDBRANCH 4281101
BRANCH 4381103
ATOM   1103  OP1 A   B  53      -8.934   9.297  12.992  0.00  0.00    +0.000 OA
ATOM   1104  H   A   B  53      -8.318   9.452  12.259  0.00  0.00    +0.000 HD
ENDBRANCH 4381103
BRANCH 4261105
ATOM   1105  O2' U   B  51      -7.822  17.766  12.526  0.00  0.00    +0.000 OA
ATOM   1106  H   U   B  51      -7.229  18.409  12.108  0.00  0.00    +0.000 HD
ENDBRANCH 4261105
BRANCH 4461107
ATOM   1107  O2' A   B  53     -13.631   9.134  18.543  0.00  0.00    +0.000 OA
ATOM   1108  H   A   B  53     -12.737   9.333  18.863  0.00  0.00    +0.000 HD
ENDBRANCH 4461107
BRANCH 4081109
ATOM   1109  OP2 U   B  50     -16.137  24.297   7.405  0.00  0.00    +0.000 OA
ATOM   1110  H   U   B  50     -16.947  24.642   6.998  0.00  0.00    +0.000 HD
ENDBRANCH 4081109
BRANCH 4481111
ATOM   1111  OP1 A   B  54     -12.680   5.106  15.997  0.00  0.00    +0.000 OA
ATOM   1112  H   A   B  54     -13.132   4.417  15.486  0.00  0.00    +0.000 HD
ENDBRANCH 4481111
BRANCH 4561113
ATOM   1113  O2' A   B  54     -19.237   6.538  18.843  0.00  0.00    +0.000 OA
ATOM   1114  H   A   B  54     -18.544   6.561  19.522  0.00  0.00    +0.000 HD
ENDBRANCH 4561113
BRANCH 4161115
ATOM   1115  O2' U   B  50      -9.081  22.923   9.396  0.00  0.00    +0.000 OA
ATOM   1116  H   U   B  50      -8.922  23.719   8.865  0.00  0.00    +0.000 HD
ENDBRANCH 4161115
BRANCH 4361117
ATOM   1117  O2' U   B  52      -9.388  12.997  16.065  0.00  0.00    +0.000 OA
ATOM   1118  H   U   B  52      -8.527  13.428  15.950  0.00  0.00    +0.000 HD
ENDBRANCH 4361117
BRANCH 4761119
ATOM   1119  O2' A   B  56     -28.604   5.658  11.156  0.00  0.00    +0.000 OA
ATOM   1120  H   A   B  56     -28.826   5.733  12.097  0.00  0.00    +0.000 HD
ENDBRANCH 4761119
BRANCH 4781121
ATOM   1121  OP1 A   B  57     -29.250   0.928  10.572  0.00  0.00    +0.000 OA
ATOM   1122  H   A   B  57     -29.219   0.239   9.890  0.00  0.00    +0.000 HD
ENDBRANCH 4781121
BRANCH 4861123
ATOM   1123  O2' A   B  57     -29.404   5.073   4.681  0.00  0.00    +0.000 OA
ATOM   1124  H   A   B  57     -30.053   5.416   5.316  0.00  0.00    +0.000 HD
ENDBRANCH 4861123
BRANCH 4881125
ATOM   1125  OP1 C   B  58     -31.106   0.736   6.916  0.00  0.00    +0.000 OA
ATOM   1126  H   C   B  58     -31.927   1.075   6.525  0.00  0.00    +0.000 HD
ENDBRANCH 4881125
BRANCH 4961127
ATOM   1127  O2' C   B  58     -34.021   1.669   2.412  0.00  0.00    +0.000 OA
ATOM   1128  H   C   B  58     -34.029   1.942   1.481  0.00  0.00    +0.000 HD
ENDBRANCH 4961127
BRANCH 4981129
ATOM   1129  OP1 A   B  59     -32.383   4.903   2.330  0.00  0.00    +0.000 OA
ATOM   1130  H   A   B  59     -33.293   4.831   2.002  0.00  0.00    +0.000 HD
ENDBRANCH 4981129
BRANCH 5061131
ATOM   1131  O2' A   B  59     -26.325   5.947  -1.559  0.00  0.00    +0.000 OA
ATOM   1132  H   A   B  59     -27.205   6.301  -1.355  0.00  0.00    +0.000 HD
ENDBRANCH 5061131
BRANCH 5081133
ATOM   1133  OP2 G   B  60     -26.888   1.051  -0.771  0.00  0.00    +0.000 OA
ATOM   1134  H   G   B  60     -26.598   0.163  -1.033  0.00  0.00    +0.000 HD
ENDBRANCH 5081133
BRANCH 5161135
ATOM   1135  O2' G   B  60     -20.967   3.029  -4.825  0.00  0.00    +0.000 OA
ATOM   1136  H   G   B  60     -21.562   3.726  -5.142  0.00  0.00    +0.000 HD
ENDBRANCH 5161135
BRANCH 5181137
ATOM   1137  OP1 A   B  61     -24.119  -0.791  -3.961  0.00  0.00    +0.000 OA
ATOM   1138  H   A   B  61     -24.963  -0.325  -4.071  0.00  0.00    +0.000 HD
ENDBRANCH 5181137
BRANCH 5251139
ATOM   1139  O2' A   B  61     -25.343   0.115 -11.201  0.00  0.00    +0.000 OA
ATOM   1140  H   A   B  61     -26.130   0.446 -10.740  0.00  0.00    +0.000 HD
ENDBRANCH 5251139
BRANCH  761141
ATOM   1141  O2' C   B  16     -27.057 -18.838   4.632  0.00  0.00    +0.000 OA
ATOM   1142  H   C   B  16     -27.322 -19.457   3.934  0.00  0.00    +0.000 HD
ENDBRANCH  761141
BRANCH   81143
ATOM   1143  OP1 U   B  10     -19.174   6.260  -5.289  0.00  0.00    +0.000 OA
ATOM   1144  H   U   B  10     -19.426   7.139  -5.613  0.00  0.00    +0.000 HD
ENDBRANCH   81143
BRANCH  161145
ATOM   1145  O2' U   B  10     -15.734  -1.040  -5.281  0.00  0.00    +0.000 OA
ATOM   1146  H   U   B  10     -14.774  -0.917  -5.221  0.00  0.00    +0.000 HD
ENDBRANCH  161145
BRANCH  181147
ATOM   1147  OP2 U   B  11     -15.291  -0.928  -8.382  0.00  0.00    +0.000 OA
ATOM   1148  H   U   B  11     -15.040  -1.529  -9.101  0.00  0.00    +0.000 HD
ENDBRANCH  181147
BRANCH  261149
ATOM   1149  O2' U   B  11     -10.468  -3.541  -3.589  0.00  0.00    +0.000 OA
ATOM   1150  H   U   B  11     -10.256  -2.791  -4.166  0.00  0.00    +0.000 HD
ENDBRANCH  261149
BRANCH  281151
ATOM   1151  OP2 U   B  12     -13.670  -6.360  -5.925  0.00  0.00    +0.000 OA
ATOM   1152  H   U   B  12     -13.983  -5.982  -6.762  0.00  0.00    +0.000 HD
ENDBRANCH  281151
BRANCH  361153
ATOM   1153  O2' U   B  12      -9.608  -8.583  -0.092  0.00  0.00    +0.000 OA
ATOM   1154  H   U   B  12      -8.960  -7.980  -0.488  0.00  0.00    +0.000 HD
ENDBRANCH  361153
BRANCH  381155
ATOM   1155  OP1 C   B  13      -9.720 -12.043  -3.539  0.00  0.00    +0.000 OA
ATOM   1156  H   C   B  13      -9.490 -11.715  -4.422  0.00  0.00    +0.000 HD
ENDBRANCH  381155
BRANCH  461157
ATOM   1157  O2' C   B  13     -11.633 -13.390   3.355  0.00  0.00    +0.000 OA
ATOM   1158  H   C   B  13     -10.751 -12.988   3.309  0.00  0.00    +0.000 HD
ENDBRANCH  461157
BRANCH  481159
ATOM   1159  OP1 A   B  14     -11.098 -17.121   0.430  0.00  0.00    +0.000 OA
ATOM   1160  H   A   B  14     -10.288 -17.050  -0.099  0.00  0.00    +0.000 HD
ENDBRANCH  481159
BRANCH  561161
ATOM   1161  O2' A   B  14     -17.204 -16.808   4.336  0.00  0.00    +0.000 OA
ATOM   1162  H   A   B  14     -16.437 -16.655   4.910  0.00  0.00    +0.000 HD
ENDBRANCH  561161
BRANCH  581163
ATOM   1163  OP1 U   B  15     -15.127 -20.917   2.277  0.00  0.00    +0.000 OA
ATOM   1164  H   U   B  15     -15.160 -21.621   1.611  0.00  0.00    +0.000 HD
ENDBRANCH  581163
BRANCH  661165
ATOM   1165  O2' U   B  15     -21.638 -21.577   2.310  0.00  0.00    +0.000 OA
ATOM   1166  H   U   B  15     -22.279 -21.670   1.588  0.00  0.00    +0.000 HD
ENDBRANCH  661165
BRANCH  681167
ATOM   1167  OP2 C   B  16     -21.197 -17.329   0.288  0.00  0.00    +0.000 OA
ATOM   1168  H   C   B  16     -20.495 -17.360  -0.381  0.00  0.00    +0.000 HD
ENDBRANCH  681167
BRANCH  781169
ATOM   1169  OP1 C   B  17     -27.669 -14.770   2.228  0.00  0.00    +0.000 OA
ATOM   1170  H   C   B  17     -27.718 -14.918   1.271  0.00  0.00    +0.000 HD
ENDBRANCH  781169
BRANCH  861171
ATOM   1171  O2' C   B  17     -26.676 -14.486   9.436  0.00  0.00    +0.000 OA
ATOM   1172  H   C   B  17     -27.389 -15.108   9.221  0.00  0.00    +0.000 HD
ENDBRANCH  861171
BRANCH  881173
ATOM   1173  OP1 G   B  18     -27.930 -10.470   7.542  0.00  0.00    +0.000 OA
ATOM   1174  H   G   B  18     -27.828  -9.579   7.171  0.00  0.00    +0.000 HD
ENDBRANCH  881173
BRANCH  961175
ATOM   1175  O2' G   B  18     -21.111 -11.863   9.162  0.00  0.00    +0.000 OA
ATOM   1176  H   G   B  18     -21.901 -12.360   9.426  0.00  0.00    +0.000 HD
ENDBRANCH  961175
BRANCH  981177
ATOM   1177  OP1 A   B  19     -22.329  -7.485  10.888  0.00  0.00    +0.000 OA
ATOM   1178  H   A   B  19     -22.022  -6.568  10.963  0.00  0.00    +0.000 HD
ENDBRANCH  981177
BRANCH 1061179
ATOM   1179  O2' A   B  19     -15.347  -8.565   9.530  0.00  0.00    +0.000 OA
ATOM   1180  H   A   B  19     -15.680  -9.305  10.062  0.00  0.00    +0.000 HD
ENDBRANCH 1061179
BRANCH 1081181
ATOM   1181  OP1 A   B  20     -16.988  -4.823  12.204  0.00  0.00    +0.000 OA
ATOM   1182  H   A   B  20     -16.968  -3.854  12.233  0.00  0.00    +0.000 HD
ENDBRANCH 1081181
BRANCH 1161183
ATOM   1183  O2' A   B  20     -11.205  -4.398   7.772  0.00  0.00    +0.000 OA
ATOM   1184  H   A   B  20     -11.117  -5.148   8.381  0.00  0.00    +0.000 HD
ENDBRANCH 1161183
BRANCH 1181185
ATOM   1185  OP1 A   B  21     -12.032  -0.824  10.964  0.00  0.00    +0.000 OA
ATOM   1186  H   A   B  21     -12.187   0.132  11.018  0.00  0.00    +0.000 HD
ENDBRANCH 1181185
BRANCH 1261187
ATOM   1187  O2' A   B  21      -9.603   0.327   4.166  0.00  0.00    +0.000 OA
ATOM   1188  H   A   B  21      -9.057  -0.333   4.621  0.00  0.00    +0.000 HD
ENDBRANCH 1261187
BRANCH 1281189
ATOM   1189  OP2 C   B  22     -11.779   3.022   7.653  0.00  0.00    +0.000 OA
ATOM   1190  H   C   B  22     -12.404   2.468   7.160  0.00  0.00    +0.000 HD
ENDBRANCH 1281189
BRANCH 1361191
ATOM   1191  O2' C   B  22     -11.478   5.083   0.542  0.00  0.00    +0.000 OA
ATOM   1192  H   C   B  22     -10.626   4.620   0.581  0.00  0.00    +0.000 HD
ENDBRANCH 1361191
BRANCH 3781193
ATOM   1193  OP2 U   B  47     -24.125  27.779  19.561  0.00  0.00    +0.000 OA
ATOM   1194  H   U   B  47     -23.843  27.080  18.951  0.00  0.00    +0.000 HD
ENDBRANCH 3781193
BRANCH 2681195
ATOM   1195  OP2 U   B  36     -14.283  40.529  20.162  0.00  0.00    +0.000 OA
ATOM   1196  H   U   B  36     -13.506  40.973  19.788  0.00  0.00    +0.000 HD
ENDBRANCH 2681195
BRANCH 2181197
ATOM   1197  OP1 A   B  31     -12.584  20.819  25.814  0.00  0.00    +0.000 OA
ATOM   1198  H   A   B  31     -12.362  21.759  25.905  0.00  0.00    +0.000 HD
ENDBRANCH 2181197
BRANCH 2261199
ATOM   1199  O2' A   B  31      -7.876  20.846  20.239  0.00  0.00    +0.000 OA
ATOM   1200  H   A   B  31      -7.775  20.030  20.754  0.00  0.00    +0.000 HD
ENDBRANCH 2261199
BRANCH 2281201
ATOM   1201  OP1 A   B  32      -7.397  24.075  23.837  0.00  0.00    +0.000 OA
ATOM   1202  H   A   B  32      -6.552  23.697  23.546  0.00  0.00    +0.000 HD
ENDBRANCH 2281201
BRANCH 2361203
ATOM   1203  O2' A   B  32      -6.020  25.777  16.888  0.00  0.00    +0.000 OA
ATOM   1204  H   A   B  32      -5.495  25.003  17.146  0.00  0.00    +0.000 HD
ENDBRANCH 2361203
BRANCH 2381205
ATOM   1205  OP2 U   B  33      -7.150  28.112  21.073  0.00  0.00    +0.000 OA
ATOM   1206  H   U   B  33      -7.924  27.736  20.626  0.00  0.00    +0.000 HD
ENDBRANCH 2381205
BRANCH 2461207
ATOM   1207  O2' U   B  33      -7.713  31.433  14.456  0.00  0.00    +0.000 OA
ATOM   1208  H   U   B  33      -6.930  30.898  14.251  0.00  0.00    +0.000 HD
ENDBRANCH 2461207
BRANCH 3561209
ATOM   1209  O2' C   B  44     -22.525  30.153  32.119  0.00  0.00    +0.000 OA
ATOM   1210  H   C   B  44     -22.750  29.526  32.824  0.00  0.00    +0.000 HD
ENDBRANCH 3561209
BRANCH 2481211
ATOM   1211  OP2 A   B  34      -7.326  32.837  19.151  0.00  0.00    +0.000 OA
ATOM   1212  H   A   B  34      -8.049  32.210  18.993  0.00  0.00    +0.000 HD
ENDBRANCH 2481211
BRANCH 3461213
ATOM   1213  O2' A   B  43     -18.792  26.758  36.676  0.00  0.00    +0.000 OA
ATOM   1214  H   A   B  43     -18.231  26.222  37.258  0.00  0.00    +0.000 HD
ENDBRANCH 3461213
BRANCH 2561215
ATOM   1215  O2' A   B  34     -11.930  36.209  14.362  0.00  0.00    +0.000 OA
ATOM   1216  H   A   B  34     -11.195  36.051  13.749  0.00  0.00    +0.000 HD
ENDBRANCH 2561215
BRANCH 2581217
ATOM   1217  OP2 A   B  35     -10.041  37.223  18.772  0.00  0.00    +0.000 OA
ATOM   1218  H   A   B  35      -9.074  37.146  18.796  0.00  0.00    +0.000 HD
ENDBRANCH 2581217
BRANCH 2661219
ATOM   1219  O2' A   B  35     -17.104  38.501  16.600  0.00  0.00    +0.000 OA
ATOM   1220  H   A   B  35     -16.629  38.654  15.768  0.00  0.00    +0.000 HD
ENDBRANCH 2661219
BRANCH 3381221
ATOM   1221  OP1 A   B  43     -11.881  27.144  34.506  0.00  0.00    +0.000 OA
ATOM   1222  H   A   B  43     -12.292  27.039  33.634  0.00  0.00    +0.000 HD
ENDBRANCH 3381221
BRANCH 3861223
ATOM   1223  O2' U   B  47     -22.076  32.522  14.149  0.00  0.00    +0.000 OA
ATOM   1224  H   U   B  47     -22.868  32.991  14.455  0.00  0.00    +0.000 HD
ENDBRANCH 3861223
BRANCH 2761225
ATOM   1225  O2' U   B  36     -21.164  38.233  21.861  0.00  0.00    +0.000 OA
ATOM   1226  H   U   B  36     -21.324  38.422  20.923  0.00  0.00    +0.000 HD
ENDBRANCH 2761225
BRANCH 2781227
ATOM   1227  OP2 A   B  37     -18.180  41.263  23.832  0.00  0.00    +0.000 OA
ATOM   1228  H   A   B  37     -17.665  41.812  23.220  0.00  0.00    +0.000 HD
ENDBRANCH 2781227
BRANCH 3361229
ATOM   1229  O2' U   B  42     -12.459  27.911  39.234  0.00  0.00    +0.000 OA
ATOM   1230  H   U   B  42     -11.535  28.017  39.508  0.00  0.00    +0.000 HD
ENDBRANCH 3361229
BRANCH 3281231
ATOM   1231  OP2 U   B  42     -11.228  33.960  35.129  0.00  0.00    +0.000 OA
ATOM   1232  H   U   B  42     -11.659  33.380  34.482  0.00  0.00    +0.000 HD
ENDBRANCH 3281231
BRANCH 2861233
ATOM   1233  O2' A   B  37     -23.521  38.452  28.124  0.00  0.00    +0.000 OA
ATOM   1234  H   A   B  37     -24.084  38.549  27.340  0.00  0.00    +0.000 HD
ENDBRANCH 2861233
BRANCH 2881235
ATOM   1235  OP1 U   B  38     -22.563  43.157  28.861  0.00  0.00    +0.000 OA
ATOM   1236  H   U   B  38     -22.722  43.670  28.053  0.00  0.00    +0.000 HD
ENDBRANCH 2881235
BRANCH 2961237
ATOM   1237  O2' U   B  38     -21.109  38.354  34.220  0.00  0.00    +0.000 OA
ATOM   1238  H   U   B  38     -21.999  38.166  33.884  0.00  0.00    +0.000 HD
ENDBRANCH 2961237
BRANCH 3261239
ATOM   1239  O2' U   B  41      -9.502  34.256  39.675  0.00  0.00    +0.000 OA
ATOM   1240  H   U   B  41      -8.752  34.871  39.658  0.00  0.00    +0.000 HD
ENDBRANCH 3261239
BRANCH 3181241
ATOM   1241  OP2 U   B  41     -12.423  38.510  34.397  0.00  0.00    +0.000 OA
ATOM   1242  H   U   B  41     -12.601  39.118  33.663  0.00  0.00    +0.000 HD
ENDBRANCH 3181241
BRANCH 2981243
ATOM   1243  OP1 U   B  39     -20.665  42.444  35.623  0.00  0.00    +0.000 OA
ATOM   1244  H   U   B  39     -19.924  41.819  35.653  0.00  0.00    +0.000 HD
ENDBRANCH 2981243
BRANCH 3061245
ATOM   1245  O2' U   B  39     -15.075  42.398  31.093  0.00  0.00    +0.000 OA
ATOM   1246  H   U   B  39     -15.783  41.743  30.989  0.00  0.00    +0.000 HD
ENDBRANCH 3061245
BRANCH 3161247
ATOM   1247  O2' C   B  40      -9.660  41.178  37.678  0.00  0.00    +0.000 OA
ATOM   1248  H   C   B  40      -9.650  42.017  37.192  0.00  0.00    +0.000 HD
ENDBRANCH 3161247
BRANCH 3081249
ATOM   1249  OP2 C   B  40     -16.604  42.290  35.871  0.00  0.00    +0.000 OA
ATOM   1250  H   C   B  40     -17.496  42.383  35.502  0.00  0.00    +0.000 HD
ENDBRANCH 3081249
BRANCH 1881251
ATOM   1251  OP1 U   B  28     -27.951  17.998  16.740  0.00  0.00    +0.000 OA
ATOM   1252  H   U   B  28     -28.547  18.483  16.148  0.00  0.00    +0.000 HD
ENDBRANCH 1881251
BRANCH 2161253
ATOM   1253  O2' A   B  30     -12.240  17.217  22.610  0.00  0.00    +0.000 OA
ATOM   1254  H   A   B  30     -12.584  16.486  23.147  0.00  0.00    +0.000 HD
ENDBRANCH 2161253
BRANCH 3681255
ATOM   1255  OP2 U   B  46     -23.299  27.704  25.144  0.00  0.00    +0.000 OA
ATOM   1256  H   U   B  46     -23.146  27.021  24.472  0.00  0.00    +0.000 HD
ENDBRANCH 3681255
BRANCH 1681257
ATOM   1257  OP2 U   B  26     -23.143  16.686   5.239  0.00  0.00    +0.000 OA
ATOM   1258  H   U   B  26     -22.624  17.134   4.553  0.00  0.00    +0.000 HD
ENDBRANCH 1681257
BRANCH 1661259
ATOM   1259  O2' U   B  25     -26.344  13.474   3.439  0.00  0.00    +0.000 OA
ATOM   1260  H   U   B  25     -26.312  13.533   2.471  0.00  0.00    +0.000 HD
ENDBRANCH 1661259
BRANCH 1581261
ATOM   1261  OP2 U   B  25     -19.025  14.563   2.848  0.00  0.00    +0.000 OA
ATOM   1262  H   U   B  25     -18.123  14.763   2.552  0.00  0.00    +0.000 HD
ENDBRANCH 1581261
BRANCH 1481263
ATOM   1263  OP2 U   B  24     -14.953  11.342   2.886  0.00  0.00    +0.000 OA
ATOM   1264  H   U   B  24     -14.010  11.335   3.113  0.00  0.00    +0.000 HD
ENDBRANCH 1481263
BRANCH 1761265
ATOM   1265  O2' U   B  26     -28.512  13.596   9.360  0.00  0.00    +0.000 OA
ATOM   1266  H   U   B  26     -28.997  13.627   8.520  0.00  0.00    +0.000 HD
ENDBRANCH 1761265
BRANCH 3661267
ATOM   1267  O2' U   B  45     -25.165  32.205  25.785  0.00  0.00    +0.000 OA
ATOM   1268  H   U   B  45     -25.495  32.215  26.697  0.00  0.00    +0.000 HD
ENDBRANCH 3661267
BRANCH 1781269
ATOM   1269  OP1 U   B  27     -28.178  18.328  10.335  0.00  0.00    +0.000 OA
ATOM   1270  H   U   B  27     -28.235  18.893   9.549  0.00  0.00    +0.000 HD
ENDBRANCH 1781269
BRANCH 1461271
ATOM   1271  O2' U   B  23     -15.994   9.203  -1.330  0.00  0.00    +0.000 OA
ATOM   1272  H   U   B  23     -15.168   8.954  -1.773  0.00  0.00    +0.000 HD
ENDBRANCH 1461271
BRANCH 1861273
ATOM   1273  O2' U   B  27     -27.465  13.327  15.573  0.00  0.00    +0.000 OA
ATOM   1274  H   U   B  27     -28.288  13.190  15.078  0.00  0.00    +0.000 HD
ENDBRANCH 1861273
BRANCH 1961275
ATOM   1275  O2' U   B  28     -23.396  13.581  20.331  0.00  0.00    +0.000 OA
ATOM   1276  H   U   B  28     -24.289  13.205  20.288  0.00  0.00    +0.000 HD
ENDBRANCH 1961275
BRANCH 3581277
ATOM   1277  OP2 U   B  45     -19.770  28.024  28.873  0.00  0.00    +0.000 OA
ATOM   1278  H   U   B  45     -19.571  27.963  27.926  0.00  0.00    +0.000 HD
ENDBRANCH 3581277
BRANCH 1381279
ATOM   1279  OP2 U   B  23     -12.147   7.411   4.773  0.00  0.00    +0.000 OA
ATOM   1280  H   U   B  23     -12.752   6.665   4.640  0.00  0.00    +0.000 HD
ENDBRANCH 1381279
BRANCH 1561281
ATOM   1281  O2' U   B  24     -21.580  12.022  -0.405  0.00  0.00    +0.000 OA
ATOM   1282  H   U   B  24     -21.055  11.958  -1.218  0.00  0.00    +0.000 HD
ENDBRANCH 1561281
BRANCH 1981283
ATOM   1283  OP1 A   B  29     -24.358  17.965  22.152  0.00  0.00    +0.000 OA
ATOM   1284  H   A   B  29     -25.248  18.300  21.958  0.00  0.00    +0.000 HD
ENDBRANCH 1981283
BRANCH 3761285
ATOM   1285  O2' U   B  46     -24.708  32.505  19.608  0.00  0.00    +0.000 OA
ATOM   1286  H   U   B  46     -25.416  32.762  20.219  0.00  0.00    +0.000 HD
ENDBRANCH 3761285
BRANCH 2061287
ATOM   1287  O2' A   B  29     -17.833  14.808  22.797  0.00  0.00    +0.000 OA
ATOM   1288  H   A   B  29     -18.534  14.226  23.130  0.00  0.00    +0.000 HD
ENDBRANCH 2061287
BRANCH 2081289
ATOM   1289  OP1 A   B  30     -18.843  18.825  25.323  0.00  0.00    +0.000 OA
ATOM   1290  H   A   B  30     -18.504  19.722  25.472  0.00  0.00    +0.000 HD
ENDBRANCH 2081289
BRANCH   11291
ATOM   1291  C5' A   B   9     -20.307   8.128  -9.411  0.00  0.00    +0.000 C 
BRANCH12911292
ATOM   1292  O5' A   B   9     -19.991   7.908 -10.776  0.00  0.00    +0.000 OA
BRANCH12921293
ATOM   1293  P   A   B   9     -19.403   9.067 -11.701  0.00  0.00    +0.000 P 
ATOM   1294  OP2 A   B   9     -18.617   8.427 -12.783  0.00  0.00    +0.000 OA
BRANCH12931295
ATOM   1295  OP1 A   B   9     -18.766  10.077 -10.826  0.00  0.00    +0.000 OA
ATOM   1296  H   A   B   9     -18.401  10.792 -11.370  0.00  0.00    +0.000 HD
ENDBRANCH12931295
BRANCH12931297
ATOM   1297  O3' U   B   8     -20.660   9.697 -12.328  0.00  0.00    +0.000 OA
BRANCH12971300
ATOM   1298  C4' U   B   8     -21.142  10.000 -14.668  0.00  0.00    +0.000 C 
ATOM   1299  O4' U   B   8     -22.324   9.773 -15.463  0.00  0.00    +0.000 OA
ATOM   1300  C3' U   B   8     -21.322   9.121 -13.453  0.00  0.00    +0.000 C 
ATOM   1301  C2' U   B   8     -22.842   9.062 -13.240  0.00  0.00    +0.000 C 
ATOM   1302  C1' U   B   8     -23.402   9.464 -14.611  0.00  0.00    +0.000 C 
BRANCH13021303
ATOM   1303  N1  U   B   8     -24.241   8.437 -15.264  0.00  0.00    +0.000 N 
ATOM   1304  C2  U   B   8     -25.613   8.617 -15.194  0.00  0.00    +0.000 A 
ATOM   1305  O2  U   B   8     -26.126   9.563 -14.621  0.00  0.00    +0.000 OA
ATOM   1306  N3  U   B   8     -26.360   7.648 -15.817  0.00  0.00    +0.000 N 
ATOM   1307  C4  U   B   8     -25.886   6.544 -16.495  0.00  0.00    +0.000 A 
ATOM   1308  O4  U   B   8     -26.690   5.766 -17.004  0.00  0.00    +0.000 OA
ATOM   1309  C5  U   B   8     -24.457   6.432 -16.524  0.00  0.00    +0.000 A 
ATOM   1310  C6  U   B   8     -23.705   7.360 -15.920  0.00  0.00    +0.000 A 
ATOM   1311  H   U   B   8     -27.338   7.752 -15.775  0.00  0.00    +0.000 HD
ENDBRANCH13021303
BRANCH13011312
ATOM   1312  O2' U   B   8     -23.285   9.991 -12.270  0.00  0.00    +0.000 OA
ATOM   1313  H   U   B   8     -23.026  10.887 -12.538  0.00  0.00    +0.000 HD
ENDBRANCH13011312
BRANCH12981314
ATOM   1314  C5' U   B   8     -19.914   9.722 -15.504  0.00  0.00    +0.000 C 
BRANCH13141315
ATOM   1315  O5' U   B   8     -19.952   8.394 -16.022  0.00  0.00    +0.000 OA
BRANCH13151316
ATOM   1316  P   U   B   8     -18.876   7.896 -17.099  0.00  0.00    +0.000 P 
ATOM   1317  OP2 U   B   8     -19.298   6.561 -17.589  0.00  0.00    +0.000 OA
BRANCH13161318
ATOM   1318  OP1 U   B   8     -17.526   8.072 -16.512  0.00  0.00    +0.000 OA
ATOM   1319  H   U   B   8     -16.856   7.776 -17.148  0.00  0.00    +0.000 HD
ENDBRANCH13161318
BRANCH13161320
ATOM   1320  O3' C   B   7     -19.024   8.945 -18.307  0.00  0.00    +0.000 OA
BRANCH13201323
ATOM   1321  C4' C   B   7     -19.587   9.200 -20.660  0.00  0.00    +0.000 C 
ATOM   1322  O4' C   B   7     -20.831   9.405 -21.379  0.00  0.00    +0.000 OA
ATOM   1323  C3' C   B   7     -20.032   8.750 -19.286  0.00  0.00    +0.000 C 
ATOM   1324  C2' C   B   7     -21.270   9.605 -19.055  0.00  0.00    +0.000 C 
ATOM   1325  C1' C   B   7     -21.880   9.638 -20.460  0.00  0.00    +0.000 C 
BRANCH13251326
ATOM   1326  N1  C   B   7     -22.922   8.605 -20.656  0.00  0.00    +0.000 N 
ATOM   1327  C2  C   B   7     -24.220   8.880 -20.213  0.00  0.00    +0.000 A 
ATOM   1328  O2  C   B   7     -24.456   9.973 -19.678  0.00  0.00    +0.000 OA
ATOM   1329  N3  C   B   7     -25.187   7.948 -20.381  0.00  0.00    +0.000 NA
ATOM   1330  C4  C   B   7     -24.899   6.780 -20.964  0.00  0.00    +0.000 A 
ATOM   1331  N4  C   B   7     -25.885   5.895 -21.107  0.00  0.00    +0.000 N 
ATOM   1332  C5  C   B   7     -23.585   6.479 -21.423  0.00  0.00    +0.000 A 
ATOM   1333  C6  C   B   7     -22.638   7.408 -21.253  0.00  0.00    +0.000 A 
ATOM   1334  H   C   B   7     -25.708   5.025 -21.532  0.00  0.00    +0.000 HD
ATOM   1335  H   C   B   7     -26.791   6.111 -20.788  0.00  0.00    +0.000 HD
ENDBRANCH13251326
BRANCH13241336
ATOM   1336  O2' C   B   7     -20.933  10.920 -18.669  0.00  0.00    +0.000 OA
ATOM   1337  H   C   B   7     -20.354  11.315 -19.339  0.00  0.00    +0.000 HD
ENDBRANCH13241336
BRANCH13211338
ATOM   1338  C5' C   B   7     -18.710   8.234 -21.415  0.00  0.00    +0.000 C 
BRANCH13381339
ATOM   1339  O5' C   B   7     -19.337   6.965 -21.544  0.00  0.00    +0.000 OA
BRANCH13391340
ATOM   1340  P   C   B   7     -18.769   5.867 -22.548  0.00  0.00    +0.000 P 
ATOM   1341  OP2 C   B   7     -19.704   4.714 -22.541  0.00  0.00    +0.000 OA
BRANCH13401342
ATOM   1342  OP1 C   B   7     -17.333   5.653 -22.241  0.00  0.00    +0.000 OA
ATOM   1343  H   C   B   7     -16.969   4.986 -22.844  0.00  0.00    +0.000 HD
ENDBRANCH13401342
BRANCH13401344
ATOM   1344  O3' A   B   6     -18.869   6.588 -23.981  0.00  0.00    +0.000 OA
BRANCH13441347
ATOM   1345  C4' A   B   6     -20.053   6.604 -26.120  0.00  0.00    +0.000 C 
ATOM   1346  O4' A   B   6     -21.241   7.282 -26.600  0.00  0.00    +0.000 OA
ATOM   1347  C3' A   B   6     -20.130   6.760 -24.613  0.00  0.00    +0.000 C 
ATOM   1348  C2' A   B   6     -20.694   8.164 -24.469  0.00  0.00    +0.000 C 
ATOM   1349  C1' A   B   6     -21.692   8.204 -25.625  0.00  0.00    +0.000 C 
BRANCH13491350
ATOM   1350  N9  A   B   6     -23.043   7.814 -25.202  0.00  0.00    +0.000 N 
ATOM   1351  C8  A   B   6     -23.653   6.595 -25.334  0.00  0.00    +0.000 A 
ATOM   1352  N7  A   B   6     -24.872   6.562 -24.855  0.00  0.00    +0.000 NA
ATOM   1353  C5  A   B   6     -25.076   7.849 -24.373  0.00  0.00    +0.000 A 
ATOM   1354  C6  A   B   6     -26.174   8.463 -23.744  0.00  0.00    +0.000 A 
ATOM   1355  N6  A   B   6     -27.325   7.829 -23.477  0.00  0.00    +0.000 N 
ATOM   1356  N1  A   B   6     -26.051   9.757 -23.391  0.00  0.00    +0.000 NA
ATOM   1357  C2  A   B   6     -24.902  10.388 -23.658  0.00  0.00    +0.000 A 
ATOM   1358  N3  A   B   6     -23.803   9.920 -24.245  0.00  0.00    +0.000 NA
ATOM   1359  C4  A   B   6     -23.959   8.628 -24.580  0.00  0.00    +0.000 A 
ATOM   1360  H   A   B   6     -27.435   6.883 -23.727  0.00  0.00    +0.000 HD
ATOM   1361  H   A   B   6     -28.060   8.309 -23.031  0.00  0.00    +0.000 HD
ENDBRANCH13491350
BRANCH13481362
ATOM   1362  O2' A   B   6     -19.706   9.154 -24.680  0.00  0.00    +0.000 OA
ATOM   1363  H   A   B   6     -19.303   9.027 -25.553  0.00  0.00    +0.000 HD
ENDBRANCH13481362
BRANCH13451364
ATOM   1364  C5' A   B   6     -20.033   5.186 -26.634  0.00  0.00    +0.000 C 
BRANCH13641365
ATOM   1365  O5' A   B   6     -21.135   4.447 -26.126  0.00  0.00    +0.000 OA
BRANCH13651366
ATOM   1366  P   A   B   6     -21.530   3.036 -26.757  0.00  0.00    +0.000 P 
ATOM   1367  OP1 A   B   6     -20.307   2.196 -26.819  0.00  0.00    +0.000 OA
BRANCH13661368
ATOM   1368  OP2 A   B   6     -22.736   2.540 -26.043  0.00  0.00    +0.000 OA
ATOM   1369  H   A   B   6     -22.998   1.681 -26.409  0.00  0.00    +0.000 HD
ENDBRANCH13661368
BRANCH13661370
ATOM   1370  O3' U   B   5     -21.944   3.416 -28.261  0.00  0.00    +0.000 OA
BRANCH13701373
ATOM   1371  C4' U   B   5     -23.803   3.459 -29.837  0.00  0.00    +0.000 C 
ATOM   1372  O4' U   B   5     -24.816   4.443 -30.171  0.00  0.00    +0.000 OA
ATOM   1373  C3' U   B   5     -23.232   3.958 -28.530  0.00  0.00    +0.000 C 
ATOM   1374  C2' U   B   5     -23.225   5.467 -28.739  0.00  0.00    +0.000 C 
ATOM   1375  C1' U   B   5     -24.531   5.662 -29.512  0.00  0.00    +0.000 C 
BRANCH13751376
ATOM   1376  N1  U   B   5     -25.664   6.008 -28.625  0.00  0.00    +0.000 N 
ATOM   1377  C2  U   B   5     -25.793   7.332 -28.234  0.00  0.00    +0.000 A 
ATOM   1378  O2  U   B   5     -25.017   8.206 -28.588  0.00  0.00    +0.000 OA
ATOM   1379  N3  U   B   5     -26.860   7.597 -27.412  0.00  0.00    +0.000 N 
ATOM   1380  C4  U   B   5     -27.797   6.693 -26.949  0.00  0.00    +0.000 A 
ATOM   1381  O4  U   B   5     -28.702   7.084 -26.215  0.00  0.00    +0.000 OA
ATOM   1382  C5  U   B   5     -27.597   5.350 -27.398  0.00  0.00    +0.000 A 
ATOM   1383  C6  U   B   5     -26.565   5.062 -28.200  0.00  0.00    +0.000 A 
ATOM   1384  H   U   B   5     -26.969   8.531 -27.121  0.00  0.00    +0.000 HD
ENDBRANCH13751376
BRANCH13741385
ATOM   1385  O2' U   B   5     -22.144   5.879 -29.550  0.00  0.00    +0.000 OA
ATOM   1386  H   U   B   5     -22.176   5.406 -30.396  0.00  0.00    +0.000 HD
ENDBRANCH13741385
BRANCH13711387
ATOM   1387  C5' U   B   5     -24.416   2.080 -29.803  0.00  0.00    +0.000 C 
BRANCH13871388
ATOM   1388  O5' U   B   5     -25.397   1.981 -28.781  0.00  0.00    +0.000 OA
BRANCH13881389
ATOM   1389  P   U   B   5     -26.391   0.733 -28.711  0.00  0.00    +0.000 P 
ATOM   1390  OP1 U   B   5     -25.580  -0.510 -28.704  0.00  0.00    +0.000 OA
BRANCH13891391
ATOM   1391  OP2 U   B   5     -27.373   0.985 -27.621  0.00  0.00    +0.000 OA
ATOM   1392  H   U   B   5     -27.816   1.834 -27.775  0.00  0.00    +0.000 HD
ENDBRANCH13891391
BRANCH13891393
ATOM   1393  O3' A   B   4     -27.160   0.802 -30.115  0.00  0.00    +0.000 OA
BRANCH13931396
ATOM   1394  C4' A   B   4     -29.300   1.204 -31.206  0.00  0.00    +0.000 C 
ATOM   1395  O4' A   B   4     -29.971   2.397 -31.688  0.00  0.00    +0.000 OA
ATOM   1396  C3' A   B   4     -28.201   1.747 -30.316  0.00  0.00    +0.000 C 
ATOM   1397  C2' A   B   4     -27.756   2.986 -31.079  0.00  0.00    +0.000 C 
ATOM   1398  C1' A   B   4     -29.092   3.505 -31.603  0.00  0.00    +0.000 C 
BRANCH13981399
ATOM   1399  N9  A   B   4     -29.684   4.513 -30.708  0.00  0.00    +0.000 N 
ATOM   1400  C8  A   B   4     -30.722   4.358 -29.828  0.00  0.00    +0.000 A 
ATOM   1401  N7  A   B   4     -31.022   5.453 -29.169  0.00  0.00    +0.000 NA
ATOM   1402  C5  A   B   4     -30.115   6.390 -29.652  0.00  0.00    +0.000 A 
ATOM   1403  C6  A   B   4     -29.910   7.749 -29.357  0.00  0.00    +0.000 A 
ATOM   1404  N6  A   B   4     -30.638   8.432 -28.457  0.00  0.00    +0.000 N 
ATOM   1405  N1  A   B   4     -28.925   8.393 -30.013  0.00  0.00    +0.000 NA
ATOM   1406  C2  A   B   4     -28.201   7.715 -30.909  0.00  0.00    +0.000 A 
ATOM   1407  N3  A   B   4     -28.298   6.439 -31.272  0.00  0.00    +0.000 NA
ATOM   1408  C4  A   B   4     -29.288   5.826 -30.597  0.00  0.00    +0.000 A 
ATOM   1409  H   A   B   4     -30.449   9.384 -28.291  0.00  0.00    +0.000 HD
ATOM   1410  H   A   B   4     -31.360   7.980 -27.963  0.00  0.00    +0.000 HD
ENDBRANCH13981399
BRANCH13971411
ATOM   1411  O2' A   B   4     -26.925   2.659 -32.177  0.00  0.00    +0.000 OA
ATOM   1412  H   A   B   4     -27.388   2.036 -32.759  0.00  0.00    +0.000 HD
ENDBRANCH13971411
BRANCH13941413
ATOM   1413  C5' A   B   4     -30.298   0.290 -30.539  0.00  0.00    +0.000 C 
BRANCH14131414
ATOM   1414  O5' A   B   4     -30.916   0.929 -29.429  0.00  0.00    +0.000 OA
BRANCH14141415
ATOM   1415  P   A   B   4     -32.167   0.256 -28.698  0.00  0.00    +0.000 P 
ATOM   1416  OP1 A   B   4     -31.795  -1.129 -28.319  0.00  0.00    +0.000 OA
BRANCH14151417
ATOM   1417  OP2 A   B   4     -32.652   1.204 -27.658  0.00  0.00    +0.000 OA
ATOM   1418  H   A   B   4     -32.851   2.060 -28.068  0.00  0.00    +0.000 HD
ENDBRANCH14151417
BRANCH14151419
ATOM   1419  O3' A   B   3     -33.262   0.158 -29.866  0.00  0.00    +0.000 OA
BRANCH14191422
ATOM   1420  C4' A   B   3     -35.344   0.973 -30.841  0.00  0.00    +0.000 C 
ATOM   1421  O4' A   B   3     -35.695   2.157 -31.604  0.00  0.00    +0.000 OA
ATOM   1422  C3' A   B   3     -33.982   1.311 -30.272  0.00  0.00    +0.000 C 
ATOM   1423  C2' A   B   3     -33.334   2.059 -31.426  0.00  0.00    +0.000 C 
ATOM   1424  C1' A   B   3     -34.516   2.864 -31.950  0.00  0.00    +0.000 C 
BRANCH14241425
ATOM   1425  N9  A   B   3     -34.567   4.203 -31.345  0.00  0.00    +0.000 N 
ATOM   1426  C8  A   B   3     -35.412   4.662 -30.370  0.00  0.00    +0.000 A 
ATOM   1427  N7  A   B   3     -35.199   5.914 -30.036  0.00  0.00    +0.000 NA
ATOM   1428  C5  A   B   3     -34.142   6.301 -30.851  0.00  0.00    +0.000 A 
ATOM   1429  C6  A   B   3     -33.441   7.514 -30.987  0.00  0.00    +0.000 A 
ATOM   1430  N6  A   B   3     -33.714   8.611 -30.268  0.00  0.00    +0.000 N 
ATOM   1431  N1  A   B   3     -32.441   7.565 -31.890  0.00  0.00    +0.000 NA
ATOM   1432  C2  A   B   3     -32.169   6.470 -32.608  0.00  0.00    +0.000 A 
ATOM   1433  N3  A   B   3     -32.753   5.276 -32.569  0.00  0.00    +0.000 NA
ATOM   1434  C4  A   B   3     -33.745   5.260 -31.659  0.00  0.00    +0.000 A 
ATOM   1435  H   A   B   3     -33.190   9.433 -30.406  0.00  0.00    +0.000 HD
ATOM   1436  H   A   B   3     -34.439   8.595 -29.602  0.00  0.00    +0.000 HD
ENDBRANCH14241425
BRANCH14231437
ATOM   1437  O2' A   B   3     -32.892   1.177 -32.440  0.00  0.00    +0.000 OA
ATOM   1438  H   A   B   3     -33.636   0.634 -32.744  0.00  0.00    +0.000 HD
ENDBRANCH14231437
BRANCH14201439
ATOM   1439  C5' A   B   3     -36.433   0.666 -29.838  0.00  0.00    +0.000 C 
BRANCH14391440
ATOM   1440  O5' A   B   3     -36.598   1.736 -28.913  0.00  0.00    +0.000 OA
BRANCH14401441
ATOM   1441  P   A   B   3     -37.854   1.762 -27.929  0.00  0.00    +0.000 P 
ATOM   1442  OP1 A   B   3     -37.960   0.437 -27.266  0.00  0.00    +0.000 OA
BRANCH14411443
ATOM   1443  OP2 A   B   3     -37.764   2.997 -27.106  0.00  0.00    +0.000 OA
ATOM   1444  H   A   B   3     -37.701   3.770 -27.689  0.00  0.00    +0.000 HD
ENDBRANCH14411443
BRANCH14411445
ATOM   1445  O3' U   B   2     -39.092   1.896 -28.931  0.00  0.00    +0.000 OA
BRANCH14451448
ATOM   1446  C4' U   B   2     -40.787   3.436 -29.779  0.00  0.00    +0.000 C 
ATOM   1447  O4' U   B   2     -40.812   4.401 -30.865  0.00  0.00    +0.000 OA
ATOM   1448  C3' U   B   2     -39.318   3.125 -29.615  0.00  0.00    +0.000 C 
ATOM   1449  C2' U   B   2     -38.828   3.117 -31.060  0.00  0.00    +0.000 C 
ATOM   1450  C1' U   B   2     -39.639   4.269 -31.647  0.00  0.00    +0.000 C 
BRANCH14501451
ATOM   1451  N1  U   B   2     -38.887   5.543 -31.618  0.00  0.00    +0.000 N 
ATOM   1452  C2  U   B   2     -37.918   5.741 -32.591  0.00  0.00    +0.000 A 
ATOM   1453  O2  U   B   2     -37.666   4.918 -33.452  0.00  0.00    +0.000 OA
ATOM   1454  N3  U   B   2     -37.249   6.942 -32.517  0.00  0.00    +0.000 N 
ATOM   1455  C4  U   B   2     -37.445   7.948 -31.589  0.00  0.00    +0.000 A 
ATOM   1456  O4  U   B   2     -36.764   8.970 -31.653  0.00  0.00    +0.000 OA
ATOM   1457  C5  U   B   2     -38.463   7.670 -30.621  0.00  0.00    +0.000 A 
ATOM   1458  C6  U   B   2     -39.133   6.507 -30.668  0.00  0.00    +0.000 A 
ATOM   1459  H   U   B   2     -36.556   7.102 -33.198  0.00  0.00    +0.000 HD
ENDBRANCH14501451
BRANCH14491460
ATOM   1460  O2' U   B   2     -39.179   1.920 -31.724  0.00  0.00    +0.000 OA
ATOM   1461  H   U   B   2     -40.139   1.792 -31.674  0.00  0.00    +0.000 HD
ENDBRANCH14491460
BRANCH14461462
ATOM   1462  C5' U   B   2     -41.482   4.001 -28.565  0.00  0.00    +0.000 C 
BRANCH14621463
ATOM   1463  O5' U   B   2     -40.759   5.111 -28.031  0.00  0.00    +0.000 OA
BRANCH14631464
ATOM   1464  P   U   B   2     -41.312   5.917 -26.773  0.00  0.00    +0.000 P 
ATOM   1465  OP2 U   B   2     -40.362   7.026 -26.485  0.00  0.00    +0.000 OA
BRANCH14641466
ATOM   1466  OP1 U   B   2     -41.666   4.950 -25.703  0.00  0.00    +0.000 OA
ATOM   1467  H   U   B   2     -42.291   4.296 -26.052  0.00  0.00    +0.000 HD
ENDBRANCH14641466
BRANCH14641468
ATOM   1468  O3' C   B   1     -42.703   6.533 -27.359  0.00  0.00    +0.000 OA
BRANCH14681471
ATOM   1469  C4' C   B   1     -43.724   8.615 -28.090  0.00  0.00    +0.000 C 
ATOM   1470  O4' C   B   1     -43.872   9.262 -29.385  0.00  0.00    +0.000 OA
ATOM   1471  C3' C   B   1     -42.655   7.567 -28.328  0.00  0.00    +0.000 C 
ATOM   1472  C2' C   B   1     -42.968   7.103 -29.736  0.00  0.00    +0.000 C 
ATOM   1473  C1' C   B   1     -43.381   8.410 -30.402  0.00  0.00    +0.000 C 
BRANCH14731474
ATOM   1474  N1  C   B   1     -42.265   9.082 -31.098  0.00  0.00    +0.000 N 
ATOM   1475  C2  C   B   1     -41.813   8.570 -32.315  0.00  0.00    +0.000 A 
ATOM   1476  O2  C   B   1     -42.361   7.558 -32.785  0.00  0.00    +0.000 OA
ATOM   1477  N3  C   B   1     -40.788   9.179 -32.960  0.00  0.00    +0.000 NA
ATOM   1478  C4  C   B   1     -40.220  10.265 -32.431  0.00  0.00    +0.000 A 
ATOM   1479  N4  C   B   1     -39.222  10.838 -33.102  0.00  0.00    +0.000 N 
ATOM   1480  C5  C   B   1     -40.656  10.814 -31.193  0.00  0.00    +0.000 A 
ATOM   1481  C6  C   B   1     -41.672  10.196 -30.566  0.00  0.00    +0.000 A 
ATOM   1482  H   C   B   1     -38.922  10.457 -33.959  0.00  0.00    +0.000 HD
ATOM   1483  H   C   B   1     -38.785  11.643 -32.741  0.00  0.00    +0.000 HD
ENDBRANCH14731474
BRANCH14721484
ATOM   1484  O2' C   B   1     -44.058   6.208 -29.744  0.00  0.00    +0.000 OA
ATOM   1485  H   C   B   1     -44.825   6.629 -29.324  0.00  0.00    +0.000 HD
ENDBRANCH14721484
BRANCH14691486
ATOM   1486  C5' C   B   1     -43.391   9.641 -27.045  0.00  0.00    +0.000 C 
BRANCH14861487
ATOM   1487  O5' C   B   1     -42.128  10.237 -27.308  0.00  0.00    +0.000 OA
BRANCH14871488
ATOM   1488  P   C   B   1     -41.428  11.283 -26.311  0.00  0.00    +0.000 P 
ATOM   1489  OP2 C   B   1     -40.184  11.716 -27.007  0.00  0.00    +0.000 OA
BRANCH14881490
ATOM   1490  OP1 C   B   1     -41.229  10.600 -25.045  0.00  0.00    +0.000 OA
ATOM   1491  H   C   B   1     -40.705   9.796 -25.190  0.00  0.00    +0.000 HD
ENDBRANCH14881490
BRANCH14881492
ATOM   1492  OP3 C   B   1     -42.131  12.396 -26.235  0.00  0.00    +0.000 OA
ATOM   1493  H   C   B   1     -42.216  12.786 -27.119  0.00  0.00    +0.000 HD
ENDBRANCH14881492
ENDBRANCH14871488
ENDBRANCH14861487
ENDBRANCH14691486
ENDBRANCH14681471
ENDBRANCH14641468
ENDBRANCH14631464
ENDBRANCH14621463
ENDBRANCH14461462
ENDBRANCH14451448
ENDBRANCH14411445
ENDBRANCH14401441
ENDBRANCH14391440
ENDBRANCH14201439
ENDBRANCH14191422
ENDBRANCH14151419
ENDBRANCH14141415
ENDBRANCH14131414
ENDBRANCH13941413
ENDBRANCH13931396
ENDBRANCH13891393
ENDBRANCH13881389
ENDBRANCH13871388
ENDBRANCH13711387
ENDBRANCH13701373
ENDBRANCH13661370
ENDBRANCH13651366
ENDBRANCH13641365
ENDBRANCH13451364
ENDBRANCH13441347
ENDBRANCH13401344
ENDBRANCH13391340
ENDBRANCH13381339
ENDBRANCH13211338
ENDBRANCH13201323
ENDBRANCH13161320
ENDBRANCH13151316
ENDBRANCH13141315
ENDBRANCH12981314
ENDBRANCH12971300
ENDBRANCH12931297
ENDBRANCH12921293
ENDBRANCH12911292
ENDBRANCH   11291
BRANCH 5241494
ATOM   1494  O3' A   B  61     -25.414  -1.987  -9.483  0.00  0.00    +0.000 OA
BRANCH14941495
ATOM   1495  P   C   B  62     -25.324  -3.419  -8.842  0.00  0.00    +0.000 P 
ATOM   1496  OP1 C   B  62     -26.690  -3.834  -8.410  0.00  0.00    +0.000 OA
BRANCH14951497
ATOM   1497  OP2 C   B  62     -24.216  -3.476  -7.878  0.00  0.00    +0.000 OA
ATOM   1498  H   C   B  62     -23.399  -3.177  -8.307  0.00  0.00    +0.000 HD
ENDBRANCH14951497
BRANCH14951499
ATOM   1499  O5' C   B  62     -24.941  -4.275 -10.124  0.00  0.00    +0.000 OA
BRANCH14991500
ATOM   1500  C5' C   B  62     -23.723  -4.974 -10.235  0.00  0.00    +0.000 C 
BRANCH15001501
ATOM   1501  C4' C   B  62     -23.927  -6.245 -11.012  0.00  0.00    +0.000 C 
ATOM   1502  O4' C   B  62     -24.571  -7.222 -10.166  0.00  0.00    +0.000 OA
ATOM   1503  C3' C   B  62     -24.839  -6.126 -12.215  0.00  0.00    +0.000 C 
ATOM   1504  C2' C   B  62     -25.344  -7.545 -12.384  0.00  0.00    +0.000 C 
ATOM   1505  C1' C   B  62     -25.479  -7.992 -10.932  0.00  0.00    +0.000 C 
BRANCH15051506
ATOM   1506  N1  C   B  62     -26.847  -7.789 -10.387  0.00  0.00    +0.000 N 
ATOM   1507  C2  C   B  62     -27.867  -8.661 -10.772  0.00  0.00    +0.000 A 
ATOM   1508  O2  C   B  62     -27.613  -9.579 -11.565  0.00  0.00    +0.000 OA
ATOM   1509  N3  C   B  62     -29.113  -8.480 -10.274  0.00  0.00    +0.000 NA
ATOM   1510  C4  C   B  62     -29.356  -7.480  -9.420  0.00  0.00    +0.000 A 
ATOM   1511  N4  C   B  62     -30.600  -7.340  -8.957  0.00  0.00    +0.000 N 
ATOM   1512  C5  C   B  62     -28.334  -6.582  -9.006  0.00  0.00    +0.000 A 
ATOM   1513  C6  C   B  62     -27.103  -6.768  -9.509  0.00  0.00    +0.000 A 
ATOM   1514  H   C   B  62     -31.306  -7.963  -9.245  0.00  0.00    +0.000 HD
ATOM   1515  H   C   B  62     -30.812  -6.614  -8.327  0.00  0.00    +0.000 HD
ENDBRANCH15051506
BRANCH15041516
ATOM   1516  O2' C   B  62     -24.398  -8.361 -13.038  0.00  0.00    +0.000 OA
ATOM   1517  H   C   B  62     -23.561  -8.342 -12.548  0.00  0.00    +0.000 HD
ENDBRANCH15041516
BRANCH15031518
ATOM   1518  O3' C   B  62     -24.169  -5.622 -13.363  0.00  0.00    +0.000 OA
BRANCH15181519
ATOM   1519  P   U   B  63     -24.863  -4.478 -14.269  0.00  0.00    +0.000 P 
ATOM   1520  OP1 U   B  63     -23.886  -4.084 -15.306  0.00  0.00    +0.000 OA
BRANCH15191521
ATOM   1521  OP2 U   B  63     -25.462  -3.446 -13.388  0.00  0.00    +0.000 OA
ATOM   1522  H   U   B  63     -25.879  -2.759 -13.932  0.00  0.00    +0.000 HD
ENDBRANCH15191521
BRANCH15191523
ATOM   1523  O5' U   B  63     -26.049  -5.266 -14.981  0.00  0.00    +0.000 OA
BRANCH15231524
ATOM   1524  C5' U   B  63     -25.795  -6.397 -15.805  0.00  0.00    +0.000 C 
BRANCH15241525
ATOM   1525  C4' U   B  63     -27.061  -7.165 -16.070  0.00  0.00    +0.000 C 
ATOM   1526  O4' U   B  63     -27.599  -7.667 -14.819  0.00  0.00    +0.000 OA
ATOM   1527  C3' U   B  63     -28.200  -6.366 -16.663  0.00  0.00    +0.000 C 
ATOM   1528  C2' U   B  63     -29.415  -7.197 -16.267  0.00  0.00    +0.000 C 
ATOM   1529  C1' U   B  63     -29.012  -7.660 -14.867  0.00  0.00    +0.000 C 
BRANCH15291530
ATOM   1530  N1  U   B  63     -29.523  -6.754 -13.811  0.00  0.00    +0.000 N 
ATOM   1531  C2  U   B  63     -30.853  -6.878 -13.446  0.00  0.00    +0.000 A 
ATOM   1532  O2  U   B  63     -31.607  -7.691 -13.956  0.00  0.00    +0.000 OA
ATOM   1533  N3  U   B  63     -31.273  -6.012 -12.462  0.00  0.00    +0.000 N 
ATOM   1534  C4  U   B  63     -30.514  -5.055 -11.816  0.00  0.00    +0.000 A 
ATOM   1535  O4  U   B  63     -31.035  -4.349 -10.952  0.00  0.00    +0.000 OA
ATOM   1536  C5  U   B  63     -29.153  -4.990 -12.247  0.00  0.00    +0.000 A 
ATOM   1537  C6  U   B  63     -28.715  -5.821 -13.204  0.00  0.00    +0.000 A 
ATOM   1538  H   U   B  63     -32.216  -6.082 -12.189  0.00  0.00    +0.000 HD
ENDBRANCH15291530
BRANCH15281539
ATOM   1539  O2' U   B  63     -29.572  -8.328 -17.102  0.00  0.00    +0.000 OA
ATOM   1540  H   U   B  63     -28.761  -8.859 -17.083  0.00  0.00    +0.000 HD
ENDBRANCH15281539
BRANCH15271541
ATOM   1541  O3' U   B  63     -28.070  -6.185 -18.068  0.00  0.00    +0.000 OA
BRANCH15411542
ATOM   1542  P   A   B  64     -28.510  -4.781 -18.733  0.00  0.00    +0.000 P 
ATOM   1543  OP1 A   B  64     -28.192  -4.855 -20.182  0.00  0.00    +0.000 OA
BRANCH15421544
ATOM   1544  OP2 A   B  64     -27.967  -3.661 -17.915  0.00  0.00    +0.000 OA
ATOM   1545  H   A   B  64     -28.229  -2.815 -18.311  0.00  0.00    +0.000 HD
ENDBRANCH15421544
BRANCH15421546
ATOM   1546  O5' A   B  64     -30.093  -4.782 -18.574  0.00  0.00    +0.000 OA
BRANCH15461547
ATOM   1547  C5' A   B  64     -30.888  -5.760 -19.235  0.00  0.00    +0.000 C 
BRANCH15471548
ATOM   1548  C4' A   B  64     -32.322  -5.690 -18.781  0.00  0.00    +0.000 C 
ATOM   1549  O4' A   B  64     -32.409  -6.007 -17.367  0.00  0.00    +0.000 OA
ATOM   1550  C3' A   B  64     -32.981  -4.329 -18.886  0.00  0.00    +0.000 C 
ATOM   1551  C2' A   B  64     -34.119  -4.454 -17.885  0.00  0.00    +0.000 C 
ATOM   1552  C1' A   B  64     -33.446  -5.248 -16.770  0.00  0.00    +0.000 C 
BRANCH15521553
ATOM   1553  N9  A   B  64     -32.865  -4.364 -15.747  0.00  0.00    +0.000 N 
ATOM   1554  C8  A   B  64     -31.543  -4.060 -15.547  0.00  0.00    +0.000 A 
ATOM   1555  N7  A   B  64     -31.337  -3.230 -14.549  0.00  0.00    +0.000 NA
ATOM   1556  C5  A   B  64     -32.612  -2.972 -14.060  0.00  0.00    +0.000 A 
ATOM   1557  C6  A   B  64     -33.077  -2.170 -13.005  0.00  0.00    +0.000 A 
ATOM   1558  N6  A   B  64     -32.270  -1.440 -12.217  0.00  0.00    +0.000 N 
ATOM   1559  N1  A   B  64     -34.406  -2.135 -12.786  0.00  0.00    +0.000 NA
ATOM   1560  C2  A   B  64     -35.209  -2.860 -13.575  0.00  0.00    +0.000 A 
ATOM   1561  N3  A   B  64     -34.891  -3.650 -14.596  0.00  0.00    +0.000 NA
ATOM   1562  C4  A   B  64     -33.559  -3.664 -14.789  0.00  0.00    +0.000 A 
ATOM   1563  H   A   B  64     -31.296  -1.453 -12.362  0.00  0.00    +0.000 HD
ATOM   1564  H   A   B  64     -32.652  -0.892 -11.494  0.00  0.00    +0.000 HD
ENDBRANCH15521553
BRANCH15511565
ATOM   1565  O2' A   B  64     -35.197  -5.207 -18.409  0.00  0.00    +0.000 OA
ATOM   1566  H   A   B  64     -34.876  -6.079 -18.689  0.00  0.00    +0.000 HD
ENDBRANCH15511565
BRANCH15501567
ATOM   1567  O3' A   B  64     -33.409  -4.030 -20.208  0.00  0.00    +0.000 OA
BRANCH15671568
ATOM   1568  P   C   B  65     -33.329  -2.519 -20.760  0.00  0.00    +0.000 P 
ATOM   1569  OP1 C   B  65     -33.679  -2.547 -22.202  0.00  0.00    +0.000 OA
BRANCH15681570
ATOM   1570  OP2 C   B  65     -32.042  -1.914 -20.322  0.00  0.00    +0.000 OA
ATOM   1571  H   C   B  65     -31.307  -2.346 -20.786  0.00  0.00    +0.000 HD
ENDBRANCH15681570
BRANCH15681572
ATOM   1572  O5' C   B  65     -34.504  -1.783 -19.976  0.00  0.00    +0.000 OA
BRANCH15721573
ATOM   1573  C5' C   B  65     -35.852  -2.207 -20.124  0.00  0.00    +0.000 C 
BRANCH15731574
ATOM   1574  C4' C   B  65     -36.754  -1.518 -19.130  0.00  0.00    +0.000 C 
ATOM   1575  O4' C   B  65     -36.352  -1.848 -17.773  0.00  0.00    +0.000 OA
ATOM   1576  C3' C   B  65     -36.733  -0.007 -19.150  0.00  0.00    +0.000 C 
ATOM   1577  C2' C   B  65     -37.300   0.326 -17.773  0.00  0.00    +0.000 C 
ATOM   1578  C1' C   B  65     -36.649  -0.760 -16.914  0.00  0.00    +0.000 C 
BRANCH15781579
ATOM   1579  N1  C   B  65     -35.403  -0.289 -16.270  0.00  0.00    +0.000 N 
ATOM   1580  C2  C   B  65     -35.505   0.506 -15.118  0.00  0.00    +0.000 A 
ATOM   1581  O2  C   B  65     -36.630   0.783 -14.674  0.00  0.00    +0.000 OA
ATOM   1582  N3  C   B  65     -34.375   0.955 -14.515  0.00  0.00    +0.000 NA
ATOM   1583  C4  C   B  65     -33.179   0.638 -15.016  0.00  0.00    +0.000 A 
ATOM   1584  N4  C   B  65     -32.097   1.105 -14.388  0.00  0.00    +0.000 N 
ATOM   1585  C5  C   B  65     -33.047  -0.169 -16.185  0.00  0.00    +0.000 A 
ATOM   1586  C6  C   B  65     -34.171  -0.607 -16.775  0.00  0.00    +0.000 A 
ATOM   1587  H   C   B  65     -31.199   0.891 -14.730  0.00  0.00    +0.000 HD
ATOM   1588  H   C   B  65     -32.197   1.663 -13.583  0.00  0.00    +0.000 HD
ENDBRANCH15781579
BRANCH15771589
ATOM   1589  O2' C   B  65     -38.701   0.174 -17.732  0.00  0.00    +0.000 OA
ATOM   1590  H   C   B  65     -38.936  -0.728 -18.000  0.00  0.00    +0.000 HD
ENDBRANCH15771589
BRANCH15761591
ATOM   1591  O3' C   B  65     -37.491   0.541 -20.221  0.00  0.00    +0.000 OA
BRANCH15911592
ATOM   1592  P   A   B  66     -37.067   1.940 -20.880  0.00  0.00    +0.000 P 
ATOM   1593  OP1 A   B  66     -37.881   2.135 -22.105  0.00  0.00    +0.000 OA
BRANCH15921594
ATOM   1594  OP2 A   B  66     -35.579   2.010 -20.959  0.00  0.00    +0.000 OA
ATOM   1595  H   A   B  66     -35.260   1.374 -21.618  0.00  0.00    +0.000 HD
ENDBRANCH15921594
BRANCH15921596
ATOM   1596  O5' A   B  66     -37.543   3.001 -19.786  0.00  0.00    +0.000 OA
BRANCH15961597
ATOM   1597  C5' A   B  66     -38.916   3.110 -19.428  0.00  0.00    +0.000 C 
BRANCH15971598
ATOM   1598  C4' A   B  66     -39.092   3.964 -18.197  0.00  0.00    +0.000 C 
ATOM   1599  O4' A   B  66     -38.357   3.386 -17.087  0.00  0.00    +0.000 OA
ATOM   1600  C3' A   B  66     -38.550   5.377 -18.291  0.00  0.00    +0.000 C 
ATOM   1601  C2' A   B  66     -38.360   5.740 -16.827  0.00  0.00    +0.000 C 
ATOM   1602  C1' A   B  66     -37.866   4.418 -16.252  0.00  0.00    +0.000 C 
BRANCH16021603
ATOM   1603  N9  A   B  66     -36.397   4.340 -16.217  0.00  0.00    +0.000 N 
ATOM   1604  C8  A   B  66     -35.571   3.601 -17.028  0.00  0.00    +0.000 A 
ATOM   1605  N7  A   B  66     -34.296   3.742 -16.751  0.00  0.00    +0.000 NA
ATOM   1606  C5  A   B  66     -34.282   4.637 -15.685  0.00  0.00    +0.000 A 
ATOM   1607  C6  A   B  66     -33.234   5.193 -14.931  0.00  0.00    +0.000 A 
ATOM   1608  N6  A   B  66     -31.939   4.923 -15.146  0.00  0.00    +0.000 N 
ATOM   1609  N1  A   B  66     -33.564   6.049 -13.942  0.00  0.00    +0.000 NA
ATOM   1610  C2  A   B  66     -34.859   6.321 -13.729  0.00  0.00    +0.000 A 
ATOM   1611  N3  A   B  66     -35.927   5.861 -14.369  0.00  0.00    +0.000 NA
ATOM   1612  C4  A   B  66     -35.564   5.010 -15.349  0.00  0.00    +0.000 A 
ATOM   1613  H   A   B  66     -31.678   4.301 -15.863  0.00  0.00    +0.000 HD
ATOM   1614  H   A   B  66     -31.248   5.347 -14.587  0.00  0.00    +0.000 HD
ENDBRANCH16021603
BRANCH16011615
ATOM   1615  O2' A   B  66     -39.581   6.090 -16.209  0.00  0.00    +0.000 OA
ATOM   1616  H   A   B  66     -40.214   5.362 -16.309  0.00  0.00    +0.000 HD
ENDBRANCH16011615
BRANCH16001617
ATOM   1617  O3' A   B  66     -39.436   6.251 -18.978  0.00  0.00    +0.000 OA
BRANCH16171618
ATOM   1618  P   A   B  67     -38.851   7.390 -19.939  0.00  0.00    +0.000 P 
ATOM   1619  OP2 A   B  67     -37.747   6.813 -20.748  0.00  0.00    +0.000 OA
BRANCH16181620
ATOM   1620  OP1 A   B  67     -40.004   8.035 -20.617  0.00  0.00    +0.000 OA
ATOM   1621  H   A   B  67     -40.403   7.410 -21.242  0.00  0.00    +0.000 HD
ENDBRANCH16181620
BRANCH16181622
ATOM   1622  O5' A   B  67     -38.218   8.440 -18.920  0.00  0.00    +0.000 OA
BRANCH16221623
ATOM   1623  C5' A   B  67     -39.028   9.101 -17.953  0.00  0.00    +0.000 C 
BRANCH16231624
ATOM   1624  C4' A   B  67     -38.176   9.852 -16.959  0.00  0.00    +0.000 C 
ATOM   1625  O4' A   B  67     -37.329   8.918 -16.238  0.00  0.00    +0.000 OA
ATOM   1626  C3' A   B  67     -37.202  10.844 -17.557  0.00  0.00    +0.000 C 
ATOM   1627  C2' A   B  67     -36.142  10.954 -16.472  0.00  0.00    +0.000 C 
ATOM   1628  C1' A   B  67     -36.078   9.515 -15.968  0.00  0.00    +0.000 C 
BRANCH16281629
ATOM   1629  N9  A   B  67     -35.033   8.727 -16.637  0.00  0.00    +0.000 N 
ATOM   1630  C8  A   B  67     -35.184   7.832 -17.665  0.00  0.00    +0.000 A 
ATOM   1631  N7  A   B  67     -34.059   7.277 -18.055  0.00  0.00    +0.000 NA
ATOM   1632  C5  A   B  67     -33.101   7.848 -17.225  0.00  0.00    +0.000 A 
ATOM   1633  C6  A   B  67     -31.708   7.676 -17.130  0.00  0.00    +0.000 A 
ATOM   1634  N1  A   B  67     -31.055   8.396 -16.197  0.00  0.00    +0.000 NA
ATOM   1635  C2  A   B  67     -31.754   9.227 -15.413  0.00  0.00    +0.000 A 
ATOM   1636  N3  A   B  67     -33.061   9.473 -15.408  0.00  0.00    +0.000 NA
ATOM   1637  C4  A   B  67     -33.686   8.740 -16.350  0.00  0.00    +0.000 A 
BRANCH16331638
ATOM   1638  N6  A   B  67     -31.009   6.846 -17.917  0.00  0.00    +0.000 N 
ATOM   1639  H   A   B  67     -31.471   6.313 -18.604  0.00  0.00    +0.000 HD
ATOM   1640  H   A   B  67     -30.033   6.770 -17.808  0.00  0.00    +0.000 HD
ENDBRANCH16331638
ENDBRANCH16281629
BRANCH16271641
ATOM   1641  O2' A   B  67     -36.559  11.802 -15.419  0.00  0.00    +0.000 OA
ATOM   1642  H   A   B  67     -37.400  11.480 -15.059  0.00  0.00    +0.000 HD
ENDBRANCH16271641
BRANCH16261643
ATOM   1643  O3' A   B  67     -37.828  12.083 -17.869  0.00  0.00    +0.000 OA
BRANCH16431644
ATOM   1644  P   A   B  68     -37.519  12.821 -19.253  0.00  0.00    +0.000 P 
ATOM   1645  OP2 A   B  68     -37.256  11.792 -20.295  0.00  0.00    +0.000 OA
BRANCH16441646
ATOM   1646  OP1 A   B  68     -38.580  13.837 -19.474  0.00  0.00    +0.000 OA
ATOM   1647  H   A   B  68     -38.415  14.300 -20.310  0.00  0.00    +0.000 HD
ENDBRANCH16441646
BRANCH16441648
ATOM   1648  O5' A   B  68     -36.153  13.584 -18.954  0.00  0.00    +0.000 OA
BRANCH16481649
ATOM   1649  C5' A   B  68     -36.063  14.547 -17.914  0.00  0.00    +0.000 C 
BRANCH16491650
ATOM   1650  C4' A   B  68     -34.621  14.854 -17.588  0.00  0.00    +0.000 C 
ATOM   1651  O4' A   B  68     -33.988  13.675 -17.028  0.00  0.00    +0.000 OA
ATOM   1652  C3' A   B  68     -33.750  15.208 -18.776  0.00  0.00    +0.000 C 
ATOM   1653  C2' A   B  68     -32.358  14.857 -18.273  0.00  0.00    +0.000 C 
ATOM   1654  C1' A   B  68     -32.651  13.589 -17.471  0.00  0.00    +0.000 C 
BRANCH16541655
ATOM   1655  N9  A   B  68     -32.516  12.374 -18.288  0.00  0.00    +0.000 N 
ATOM   1656  C8  A   B  68     -33.497  11.723 -18.990  0.00  0.00    +0.000 A 
ATOM   1657  N7  A   B  68     -33.072  10.657 -19.628  0.00  0.00    +0.000 NA
ATOM   1658  C5  A   B  68     -31.718  10.605 -19.326  0.00  0.00    +0.000 A 
ATOM   1659  C6  A   B  68     -30.701   9.709 -19.696  0.00  0.00    +0.000 A 
ATOM   1660  N1  A   B  68     -29.462   9.941 -19.223  0.00  0.00    +0.000 NA
ATOM   1661  C2  A   B  68     -29.262  11.002 -18.433  0.00  0.00    +0.000 A 
ATOM   1662  N3  A   B  68     -30.136  11.915 -18.014  0.00  0.00    +0.000 NA
ATOM   1663  C4  A   B  68     -31.363  11.654 -18.503  0.00  0.00    +0.000 A 
BRANCH16591664
ATOM   1664  N6  A   B  68     -30.903   8.649 -20.491  0.00  0.00    +0.000 N 
ATOM   1665  H   A   B  68     -31.803   8.464 -20.846  0.00  0.00    +0.000 HD
ATOM   1666  H   A   B  68     -30.152   8.055 -20.720  0.00  0.00    +0.000 HD
ENDBRANCH16591664
ENDBRANCH16541655
BRANCH16531667
ATOM   1667  O2' A   B  68     -31.848  15.853 -17.409  0.00  0.00    +0.000 OA
ATOM   1668  H   A   B  68     -32.466  15.991 -16.675  0.00  0.00    +0.000 HD
ENDBRANCH16531667
BRANCH16521669
ATOM   1669  O3' A   B  68     -33.893  16.570 -19.168  0.00  0.00    +0.000 OA
BRANCH16691670
ATOM   1670  P   A   B  69     -34.004  16.955 -20.708  0.00  0.00    +0.000 P 
ATOM   1671  OP2 A   B  69     -34.602  15.804 -21.442  0.00  0.00    +0.000 OA
BRANCH16701672
ATOM   1672  OP1 A   B  69     -34.638  18.295 -20.797  0.00  0.00    +0.000 OA
ATOM   1673  H   A   B  69     -34.718  18.554 -21.728  0.00  0.00    +0.000 HD
ENDBRANCH16701672
BRANCH16701674
ATOM   1674  O5' A   B  69     -32.485  17.090 -21.165  0.00  0.00    +0.000 OA
BRANCH16741675
ATOM   1675  C5' A   B  69     -31.657  18.125 -20.649  0.00  0.00    +0.000 C 
BRANCH16751676
ATOM   1676  C4' A   B  69     -30.205  17.870 -20.967  0.00  0.00    +0.000 C 
ATOM   1677  O4' A   B  69     -29.755  16.681 -20.271  0.00  0.00    +0.000 OA
ATOM   1678  C3' A   B  69     -29.889  17.576 -22.419  0.00  0.00    +0.000 C 
ATOM   1679  C2' A   B  69     -28.561  16.843 -22.306  0.00  0.00    +0.000 C 
ATOM   1680  C1' A   B  69     -28.810  15.993 -21.065  0.00  0.00    +0.000 C 
BRANCH16801681
ATOM   1681  N9  A   B  69     -29.364  14.680 -21.416  0.00  0.00    +0.000 N 
ATOM   1682  C8  A   B  69     -30.678  14.295 -21.434  0.00  0.00    +0.000 A 
ATOM   1683  N7  A   B  69     -30.857  13.048 -21.802  0.00  0.00    +0.000 NA
ATOM   1684  C5  A   B  69     -29.571  12.584 -22.045  0.00  0.00    +0.000 A 
ATOM   1685  C6  A   B  69     -29.077  11.338 -22.465  0.00  0.00    +0.000 A 
ATOM   1686  N1  A   B  69     -27.745  11.213 -22.608  0.00  0.00    +0.000 NA
ATOM   1687  C2  A   B  69     -26.963  12.265 -22.346  0.00  0.00    +0.000 A 
ATOM   1688  N3  A   B  69     -27.309  13.485 -21.945  0.00  0.00    +0.000 NA
ATOM   1689  C4  A   B  69     -28.645  13.578 -21.813  0.00  0.00    +0.000 A 
BRANCH16851690
ATOM   1690  N6  A   B  69     -29.861  10.284 -22.732  0.00  0.00    +0.000 N 
ATOM   1691  H   A   B  69     -29.460   9.433 -23.023  0.00  0.00    +0.000 HD
ATOM   1692  H   A   B  69     -30.838  10.360 -22.637  0.00  0.00    +0.000 HD
ENDBRANCH16851690
ENDBRANCH16801681
BRANCH16791693
ATOM   1693  O2' A   B  69     -27.488  17.731 -22.062  0.00  0.00    +0.000 OA
ATOM   1694  H   A   B  69     -27.674  18.251 -21.264  0.00  0.00    +0.000 HD
ENDBRANCH16791693
BRANCH16781695
ATOM   1695  O3' A   B  69     -29.831  18.745 -23.225  0.00  0.00    +0.000 OA
BRANCH16951696
ATOM   1696  P   A   B  70     -30.255  18.676 -24.764  0.00  0.00    +0.000 P 
ATOM   1697  OP1 A   B  70     -30.322  20.067 -25.271  0.00  0.00    +0.000 OA
BRANCH16961698
ATOM   1698  OP2 A   B  70     -31.436  17.780 -24.897  0.00  0.00    +0.000 OA
ATOM   1699  H   A   B  70     -31.702  17.731 -25.829  0.00  0.00    +0.000 HD
ENDBRANCH16961698
BRANCH16961700
ATOM   1700  O5' A   B  70     -29.015  17.951 -25.451  0.00  0.00    +0.000 OA
BRANCH17001701
ATOM   1701  C5' A   B  70     -27.724  18.545 -25.419  0.00  0.00    +0.000 C 
BRANCH17011702
ATOM   1702  C4' A   B  70     -26.683  17.619 -26.003  0.00  0.00    +0.000 C 
ATOM   1703  O4' A   B  70     -26.570  16.424 -25.190  0.00  0.00    +0.000 OA
ATOM   1704  C3' A   B  70     -26.978  17.082 -27.387  0.00  0.00    +0.000 C 
ATOM   1705  C2' A   B  70     -26.084  15.850 -27.439  0.00  0.00    +0.000 C 
ATOM   1706  C1' A   B  70     -26.220  15.325 -26.010  0.00  0.00    +0.000 C 
BRANCH17061707
ATOM   1707  N9  A   B  70     -27.264  14.300 -25.888  0.00  0.00    +0.000 N 
ATOM   1708  C8  A   B  70     -28.553  14.440 -25.451  0.00  0.00    +0.000 A 
ATOM   1709  N7  A   B  70     -29.240  13.322 -25.462  0.00  0.00    +0.000 NA
ATOM   1710  C5  A   B  70     -28.340  12.383 -25.944  0.00  0.00    +0.000 A 
ATOM   1711  C6  A   B  70     -28.450  11.004 -26.194  0.00  0.00    +0.000 A 
ATOM   1712  N6  A   B  70     -29.571  10.298 -25.986  0.00  0.00    +0.000 N 
ATOM   1713  N1  A   B  70     -27.365  10.366 -26.672  0.00  0.00    +0.000 NA
ATOM   1714  C2  A   B  70     -26.248  11.069 -26.881  0.00  0.00    +0.000 A 
ATOM   1715  N3  A   B  70     -26.021  12.364 -26.685  0.00  0.00    +0.000 NA
ATOM   1716  C4  A   B  70     -27.122  12.971 -26.210  0.00  0.00    +0.000 A 
ATOM   1717  H   A   B  70     -29.588   9.333 -26.180  0.00  0.00    +0.000 HD
ATOM   1718  H   A   B  70     -30.377  10.745 -25.639  0.00  0.00    +0.000 HD
ENDBRANCH17061707
BRANCH17051719
ATOM   1719  O2' A   B  70     -24.732  16.183 -27.692  0.00  0.00    +0.000 OA
ATOM   1720  H   A   B  70     -24.421  16.808 -27.018  0.00  0.00    +0.000 HD
ENDBRANCH17051719
BRANCH17041721
ATOM   1721  O3' A   B  70     -26.697  18.033 -28.410  0.00  0.00    +0.000 OA
BRANCH17211722
ATOM   1722  P   U   B  71     -27.616  18.116 -29.705  0.00  0.00    +0.000 P 
ATOM   1723  OP1 U   B  71     -27.377  19.434 -30.347  0.00  0.00    +0.000 OA
BRANCH17221724
ATOM   1724  OP2 U   B  71     -29.000  17.714 -29.331  0.00  0.00    +0.000 OA
ATOM   1725  H   U   B  71     -29.572  17.760 -30.113  0.00  0.00    +0.000 HD
ENDBRANCH17221724
BRANCH17221726
ATOM   1726  O5' U   B  71     -27.011  16.983 -30.644  0.00  0.00    +0.000 OA
BRANCH17261727
ATOM   1727  C5' U   B  71     -25.660  17.042 -31.091  0.00  0.00    +0.000 C 
BRANCH17271728
ATOM   1728  C4' U   B  71     -25.195  15.699 -31.601  0.00  0.00    +0.000 C 
ATOM   1729  O4' U   B  71     -25.228  14.725 -30.523  0.00  0.00    +0.000 OA
ATOM   1730  C3' U   B  71     -26.044  15.069 -32.680  0.00  0.00    +0.000 C 
ATOM   1731  C2' U   B  71     -25.659  13.599 -32.564  0.00  0.00    +0.000 C 
ATOM   1732  C1' U   B  71     -25.535  13.447 -31.047  0.00  0.00    +0.000 C 
BRANCH17321733
ATOM   1733  N1  U   B  71     -26.791  12.964 -30.430  0.00  0.00    +0.000 N 
ATOM   1734  C2  U   B  71     -27.012  11.600 -30.424  0.00  0.00    +0.000 A 
ATOM   1735  O2  U   B  71     -26.223  10.798 -30.896  0.00  0.00    +0.000 OA
ATOM   1736  N3  U   B  71     -28.195  11.200 -29.845  0.00  0.00    +0.000 N 
ATOM   1737  C4  U   B  71     -29.159  12.011 -29.280  0.00  0.00    +0.000 A 
ATOM   1738  O4  U   B  71     -30.169  11.502 -28.800  0.00  0.00    +0.000 OA
ATOM   1739  C5  U   B  71     -28.857  13.406 -29.325  0.00  0.00    +0.000 A 
ATOM   1740  C6  U   B  71     -27.713  13.825 -29.884  0.00  0.00    +0.000 A 
ATOM   1741  H   U   B  71     -28.373  10.232 -29.832  0.00  0.00    +0.000 HD
ENDBRANCH17321733
BRANCH17311742
ATOM   1742  O2' U   B  71     -24.407  13.330 -33.161  0.00  0.00    +0.000 OA
ATOM   1743  H   U   B  71     -23.730  13.900 -32.764  0.00  0.00    +0.000 HD
ENDBRANCH17311742
BRANCH17301744
ATOM   1744  O3' U   B  71     -25.797  15.621 -33.970  0.00  0.00    +0.000 OA
BRANCH17441745
ATOM   1745  P   C   B  72     -26.984  15.715 -35.031  0.00  0.00    +0.000 P 
ATOM   1746  OP1 C   B  72     -26.505  16.543 -36.166  0.00  0.00    +0.000 OA
BRANCH17451747
ATOM   1747  OP2 C   B  72     -28.242  16.082 -34.328  0.00  0.00    +0.000 OA
ATOM   1748  H   C   B  72     -28.966  16.140 -34.971  0.00  0.00    +0.000 HD
ENDBRANCH17451747
BRANCH17451749
ATOM   1749  O5' C   B  72     -27.127  14.211 -35.533  0.00  0.00    +0.000 OA
BRANCH17491750
ATOM   1750  C5' C   B  72     -26.062  13.565 -36.224  0.00  0.00    +0.000 C 
BRANCH17501751
ATOM   1751  C4' C   B  72     -26.290  12.075 -36.309  0.00  0.00    +0.000 C 
ATOM   1752  O4' C   B  72     -26.371  11.509 -34.974  0.00  0.00    +0.000 OA
ATOM   1753  C3' C   B  72     -27.582  11.636 -36.959  0.00  0.00    +0.000 C 
ATOM   1754  C2' C   B  72     -27.730  10.218 -36.423  0.00  0.00    +0.000 C 
ATOM   1755  C1' C   B  72     -27.251  10.400 -34.984  0.00  0.00    +0.000 C 
BRANCH17551756
ATOM   1756  N1  C   B  72     -28.374  10.665 -34.053  0.00  0.00    +0.000 N 
ATOM   1757  C2  C   B  72     -29.110   9.576 -33.574  0.00  0.00    +0.000 A 
ATOM   1758  O2  C   B  72     -28.801   8.433 -33.936  0.00  0.00    +0.000 OA
ATOM   1759  N3  C   B  72     -30.148   9.796 -32.726  0.00  0.00    +0.000 NA
ATOM   1760  C4  C   B  72     -30.460  11.037 -32.353  0.00  0.00    +0.000 A 
ATOM   1761  N4  C   B  72     -31.488  11.202 -31.519  0.00  0.00    +0.000 N 
ATOM   1762  C5  C   B  72     -29.728  12.160 -32.827  0.00  0.00    +0.000 A 
ATOM   1763  C6  C   B  72     -28.705  11.933 -33.665  0.00  0.00    +0.000 A 
ATOM   1764  H   C   B  72     -31.743  12.106 -31.225  0.00  0.00    +0.000 HD
ATOM   1765  H   C   B  72     -31.991  10.419 -31.197  0.00  0.00    +0.000 HD
ENDBRANCH17551756
BRANCH17541766
ATOM   1766  O2' C   B  72     -26.875   9.307 -37.085  0.00  0.00    +0.000 OA
ATOM   1767  H   C   B  72     -25.957   9.613 -37.012  0.00  0.00    +0.000 HD
ENDBRANCH17541766
BRANCH17531768
ATOM   1768  O3' C   B  72     -27.536  11.697 -38.378  0.00  0.00    +0.000 OA
BRANCH17681769
ATOM   1769  P   U   B  73     -28.896  11.954 -39.197  0.00  0.00    +0.000 P 
ATOM   1770  OP1 U   B  73     -28.521  12.246 -40.600  0.00  0.00    +0.000 OA
BRANCH17691771
ATOM   1771  OP2 U   B  73     -29.751  12.910 -38.445  0.00  0.00    +0.000 OA
ATOM   1772  H   U   B  73     -30.572  13.066 -38.938  0.00  0.00    +0.000 HD
ENDBRANCH17691771
BRANCH17691773
ATOM   1773  O5' U   B  73     -29.601  10.523 -39.149  0.00  0.00    +0.000 OA
BRANCH17731774
ATOM   1774  C5' U   B  73     -28.986   9.382 -39.735  0.00  0.00    +0.000 C 
BRANCH17741775
ATOM   1775  C4' U   B  73     -29.670   8.105 -39.310  0.00  0.00    +0.000 C 
ATOM   1776  O4' U   B  73     -29.608   7.965 -37.866  0.00  0.00    +0.000 OA
ATOM   1777  C3' U   B  73     -31.146   8.006 -39.612  0.00  0.00    +0.000 C 
ATOM   1778  C2' U   B  73     -31.596   6.926 -38.634  0.00  0.00    +0.000 C 
ATOM   1779  C1' U   B  73     -30.757   7.277 -37.405  0.00  0.00    +0.000 C 
BRANCH17791780
ATOM   1780  N1  U   B  73     -31.492   8.141 -36.454  0.00  0.00    +0.000 N 
ATOM   1781  C2  U   B  73     -32.407   7.531 -35.611  0.00  0.00    +0.000 A 
ATOM   1782  O2  U   B  73     -32.623   6.331 -35.628  0.00  0.00    +0.000 OA
ATOM   1783  N3  U   B  73     -33.067   8.377 -34.748  0.00  0.00    +0.000 N 
ATOM   1784  C4  U   B  73     -32.908   9.743 -34.641  0.00  0.00    +0.000 A 
ATOM   1785  O4  U   B  73     -33.575  10.365 -33.816  0.00  0.00    +0.000 OA
ATOM   1786  C5  U   B  73     -31.948  10.299 -35.541  0.00  0.00    +0.000 A 
ATOM   1787  C6  U   B  73     -31.287   9.500 -36.396  0.00  0.00    +0.000 A 
ATOM   1788  H   U   B  73     -33.723   7.962 -34.142  0.00  0.00    +0.000 HD
ENDBRANCH17791780
BRANCH17781789
ATOM   1789  O2' U   B  73     -31.250   5.631 -39.083  0.00  0.00    +0.000 OA
ATOM   1790  H   U   B  73     -30.294   5.588 -39.239  0.00  0.00    +0.000 HD
ENDBRANCH17781789
BRANCH17771791
ATOM   1791  O3' U   B  73     -31.408   7.677 -40.971  0.00  0.00    +0.000 OA
BRANCH17911792
ATOM   1792  P   C   B  74     -32.768   8.179 -41.637  0.00  0.00    +0.000 P 
ATOM   1793  OP1 C   B  74     -32.654   7.917 -43.091  0.00  0.00    +0.000 OA
BRANCH17921794
ATOM   1794  OP2 C   B  74     -33.093   9.548 -41.155  0.00  0.00    +0.000 OA
ATOM   1795  H   C   B  74     -33.920   9.847 -41.564  0.00  0.00    +0.000 HD
ENDBRANCH17921794
BRANCH17921796
ATOM   1796  O5' C   B  74     -33.845   7.178 -41.030  0.00  0.00    +0.000 OA
BRANCH17961797
ATOM   1797  C5' C   B  74     -33.768   5.777 -41.272  0.00  0.00    +0.000 C 
BRANCH17971798
ATOM   1798  C4' C   B  74     -34.781   5.029 -40.446  0.00  0.00    +0.000 C 
ATOM   1799  O4' C   B  74     -34.496   5.199 -39.032  0.00  0.00    +0.000 OA
ATOM   1800  C3' C   B  74     -36.214   5.485 -40.581  0.00  0.00    +0.000 C 
ATOM   1801  C2' C   B  74     -36.840   4.951 -39.298  0.00  0.00    +0.000 C 
ATOM   1802  C1' C   B  74     -35.705   5.178 -38.297  0.00  0.00    +0.000 C 
BRANCH18021803
ATOM   1803  N1  C   B  74     -35.847   6.458 -37.561  0.00  0.00    +0.000 N 
ATOM   1804  C2  C   B  74     -36.715   6.508 -36.462  0.00  0.00    +0.000 A 
ATOM   1805  O2  C   B  74     -37.339   5.486 -36.139  0.00  0.00    +0.000 OA
ATOM   1806  N3  C   B  74     -36.854   7.671 -35.777  0.00  0.00    +0.000 NA
ATOM   1807  C4  C   B  74     -36.170   8.756 -36.149  0.00  0.00    +0.000 A 
ATOM   1808  N4  C   B  74     -36.340   9.877 -35.446  0.00  0.00    +0.000 N 
ATOM   1809  C5  C   B  74     -35.284   8.731 -37.262  0.00  0.00    +0.000 A 
ATOM   1810  C6  C   B  74     -35.153   7.577 -37.933  0.00  0.00    +0.000 A 
ATOM   1811  H   C   B  74     -35.850  10.694 -35.695  0.00  0.00    +0.000 HD
ATOM   1812  H   C   B  74     -36.956   9.888 -34.678  0.00  0.00    +0.000 HD
ENDBRANCH18021803
BRANCH18011813
ATOM   1813  O2' C   B  74     -37.113   3.566 -39.383  0.00  0.00    +0.000 OA
ATOM   1814  H   C   B  74     -36.297   3.088 -39.601  0.00  0.00    +0.000 HD
ENDBRANCH18011813
BRANCH18001815
ATOM   1815  O3' C   B  74     -36.835   4.988 -41.760  0.00  0.00    +0.000 OA
BRANCH18151816
ATOM   1816  P   C   B  75     -37.963   5.868 -42.480  0.00  0.00    +0.000 P 
ATOM   1817  OP1 C   B  75     -38.196   5.275 -43.818  0.00  0.00    +0.000 OA
BRANCH18161818
ATOM   1818  OP2 C   B  75     -37.618   7.308 -42.360  0.00  0.00    +0.000 OA
ATOM   1819  H   C   B  75     -36.836   7.499 -42.901  0.00  0.00    +0.000 HD
ENDBRANCH18161818
BRANCH18161820
ATOM   1820  O5' C   B  75     -39.247   5.595 -41.580  0.00  0.00    +0.000 OA
BRANCH18201821
ATOM   1821  C5' C   B  75     -39.787   4.286 -41.452  0.00  0.00    +0.000 C 
BRANCH18211822
ATOM   1822  C4' C   B  75     -40.883   4.253 -40.415  0.00  0.00    +0.000 C 
ATOM   1823  O4' C   B  75     -40.331   4.546 -39.104  0.00  0.00    +0.000 OA
ATOM   1824  C3' C   B  75     -41.983   5.275 -40.582  0.00  0.00    +0.000 C 
ATOM   1825  C2' C   B  75     -42.562   5.355 -39.174  0.00  0.00    +0.000 C 
ATOM   1826  C1' C   B  75     -41.303   5.211 -38.318  0.00  0.00    +0.000 C 
BRANCH18261827
ATOM   1827  N1  C   B  75     -40.759   6.515 -37.875  0.00  0.00    +0.000 N 
ATOM   1828  C2  C   B  75     -41.307   7.112 -36.731  0.00  0.00    +0.000 A 
ATOM   1829  O2  C   B  75     -42.228   6.534 -36.132  0.00  0.00    +0.000 OA
ATOM   1830  N3  C   B  75     -40.820   8.304 -36.305  0.00  0.00    +0.000 NA
ATOM   1831  C4  C   B  75     -39.829   8.901 -36.973  0.00  0.00    +0.000 A 
ATOM   1832  N4  C   B  75     -39.381  10.073 -36.521  0.00  0.00    +0.000 N 
ATOM   1833  C5  C   B  75     -39.256   8.317 -38.138  0.00  0.00    +0.000 A 
ATOM   1834  C6  C   B  75     -39.746   7.136 -38.550  0.00  0.00    +0.000 A 
ATOM   1835  H   C   B  75     -38.652  10.536 -36.993  0.00  0.00    +0.000 HD
ATOM   1836  H   C   B  75     -39.780  10.475 -35.716  0.00  0.00    +0.000 HD
ENDBRANCH18261827
BRANCH18251837
ATOM   1837  O2' C   B  75     -43.432   4.271 -38.904  0.00  0.00    +0.000 OA
ATOM   1838  H   C   B  75     -42.960   3.435 -39.042  0.00  0.00    +0.000 HD
ENDBRANCH18251837
BRANCH18241839
ATOM   1839  O3' C   B  75     -42.938   4.886 -41.565  0.00  0.00    +0.000 OA
BRANCH18391840
ATOM   1840  P   A   B  76     -43.501   5.983 -42.580  0.00  0.00    +0.000 P 
ATOM   1841  OP1 A   B  76     -44.389   5.274 -43.536  0.00  0.00    +0.000 OA
BRANCH18401842
ATOM   1842  OP2 A   B  76     -42.378   6.808 -43.085  0.00  0.00    +0.000 OA
ATOM   1843  H   A   B  76     -42.718   7.475 -43.702  0.00  0.00    +0.000 HD
ENDBRANCH18401842
BRANCH18401844
ATOM   1844  O5' A   B  76     -44.407   6.901 -41.643  0.00  0.00    +0.000 OA
BRANCH18441845
ATOM   1845  C5' A   B  76     -45.552   6.370 -40.982  0.00  0.00    +0.000 C 
BRANCH18451846
ATOM   1846  C4' A   B  76     -46.032   7.304 -39.892  0.00  0.00    +0.000 C 
ATOM   1847  O4' A   B  76     -44.955   7.513 -38.943  0.00  0.00    +0.000 OA
ATOM   1848  C3' A   B  76     -46.402   8.705 -40.333  0.00  0.00    +0.000 C 
ATOM   1849  C2' A   B  76     -46.247   9.499 -39.045  0.00  0.00    +0.000 C 
ATOM   1850  C1' A   B  76     -45.022   8.824 -38.422  0.00  0.00    +0.000 C 
BRANCH18501851
ATOM   1851  N9  A   B  76     -43.773   9.525 -38.756  0.00  0.00    +0.000 N 
ATOM   1852  C8  A   B  76     -42.998   9.391 -39.876  0.00  0.00    +0.000 A 
ATOM   1853  N7  A   B  76     -41.940  10.167 -39.881  0.00  0.00    +0.000 NA
ATOM   1854  C5  A   B  76     -42.028  10.861 -38.682  0.00  0.00    +0.000 A 
ATOM   1855  C6  A   B  76     -41.211  11.838 -38.087  0.00  0.00    +0.000 A 
ATOM   1856  N1  A   B  76     -41.582  12.319 -36.882  0.00  0.00    +0.000 NA
ATOM   1857  C2  A   B  76     -42.702  11.851 -36.322  0.00  0.00    +0.000 A 
ATOM   1858  N3  A   B  76     -43.551  10.938 -36.783  0.00  0.00    +0.000 NA
ATOM   1859  C4  A   B  76     -43.149  10.479 -37.983  0.00  0.00    +0.000 A 
BRANCH18551860
ATOM   1860  N6  A   B  76     -40.088  12.314 -38.653  0.00  0.00    +0.000 N 
ATOM   1861  H   A   B  76     -39.799  11.977 -39.532  0.00  0.00    +0.000 HD
ATOM   1862  H   A   B  76     -39.555  12.999 -38.189  0.00  0.00    +0.000 HD
ENDBRANCH18551860
ENDBRANCH18501851
BRANCH18481863
ATOM   1863  O3' A   B  76     -47.706   8.780 -40.896  0.00  0.00    +0.000 OA
ATOM   1864  H   A   B  76     -48.356   8.459 -40.251  0.00  0.00    +0.000 HD
ENDBRANCH18481863
BRANCH18491865
ATOM   1865  O2' A   B  76     -47.362   9.326 -38.194  0.00  0.00    +0.000 OA
ATOM   1866  H   A   B  76     -47.490   8.381 -38.016  0.00  0.00    +0.000 HD
ENDBRANCH18491865
ENDBRANCH18451846
ENDBRANCH18441845
ENDBRANCH18401844
ENDBRANCH18391840
ENDBRANCH18241839
ENDBRANCH18211822
ENDBRANCH18201821
ENDBRANCH18161820
ENDBRANCH18151816
ENDBRANCH18001815
ENDBRANCH17971798
ENDBRANCH17961797
ENDBRANCH17921796
ENDBRANCH17911792
ENDBRANCH17771791
ENDBRANCH17741775
ENDBRANCH17731774
ENDBRANCH17691773
ENDBRANCH17681769
ENDBRANCH17531768
ENDBRANCH17501751
ENDBRANCH17491750
ENDBRANCH17451749
ENDBRANCH17441745
ENDBRANCH17301744
ENDBRANCH17271728
ENDBRANCH17261727
ENDBRANCH17221726
ENDBRANCH17211722
ENDBRANCH17041721
ENDBRANCH17011702
ENDBRANCH17001701
ENDBRANCH16961700
ENDBRANCH16951696
ENDBRANCH16781695
ENDBRANCH16751676
ENDBRANCH16741675
ENDBRANCH16701674
ENDBRANCH16691670
ENDBRANCH16521669
ENDBRANCH16491650
ENDBRANCH16481649
ENDBRANCH16441648
ENDBRANCH16431644
ENDBRANCH16261643
ENDBRANCH16231624
ENDBRANCH16221623
ENDBRANCH16181622
ENDBRANCH16171618
ENDBRANCH16001617
ENDBRANCH15971598
ENDBRANCH15961597
ENDBRANCH15921596
ENDBRANCH15911592
ENDBRANCH15761591
ENDBRANCH15731574
ENDBRANCH15721573
ENDBRANCH15681572
ENDBRANCH15671568
ENDBRANCH15501567
ENDBRANCH15471548
ENDBRANCH15461547
ENDBRANCH15421546
ENDBRANCH15411542
ENDBRANCH15271541
ENDBRANCH15241525
ENDBRANCH15231524
ENDBRANCH15191523
ENDBRANCH15181519
ENDBRANCH15031518
ENDBRANCH15001501
ENDBRANCH14991500
ENDBRANCH14951499
ENDBRANCH14941495
ENDBRANCH 5241494
TORSDOF 365
