REMARK  Name = /storage/kiran-stuff/aaRS/phase2/energy_scoring/vina_182jobs/modern_thrrs_ecoli_zn_ALA_ALA/ligand.h.pdb
REMARK  4 active torsions:
REMARK  status: ('A' for Active; 'I' for Inactive)
REMARK    1  A    between atoms: N_1  and  CA_2
REMARK    2  A    between atoms: CA_2  and  C_3
REMARK    3  A    between atoms: CA_2  and  CB_5
REMARK    4  A    between atoms: C_3  and  O_4
REMARK                            x       y       z     vdW  Elec       q    Type
REMARK                         _______ _______ _______ _____ _____    ______ ____
ROOT
ATOM      1  CA  ALA B   1      10.001   3.483   7.198  0.00  0.00    +0.000 C 
ATOM      2  CB  ALA B   1       9.098   4.606   6.722  0.00  0.00    +0.000 C 
ENDROOT
BRANCH   1   3
ATOM      3  N   ALA B   1      11.291   3.609   6.567  0.00  0.00    +0.000 NA
ATOM      4  H   ALA B   1      11.177   3.594   5.554  0.00  0.00    +0.000 HD
ATOM      5  H   ALA B   1      11.887   2.833   6.854  0.00  0.00    +0.000 HD
ENDBRANCH   1   3
BRANCH   1   6
ATOM      6  C   ALA B   1      10.113   3.499   8.700  0.00  0.00    +0.000 C 
ATOM      7  OXT ALA B   1      11.164   3.865   9.248  0.00  0.00    +0.000 OA
BRANCH   6   8
ATOM      8  O   ALA B   1       9.132   3.144   9.387  0.00  0.00    +0.000 OA
ATOM      9  H   ALA B   1       8.341   2.869   8.968  0.00  0.00    +0.000 HD
ENDBRANCH   6   8
ENDBRANCH   1   6
TORSDOF 3
