REMARK  Name = /storage/kiran-stuff/aaRS/phase2/energy_scoring/vina_182jobs/modern_thrrs_ecoli_zn_ALA_ALA/ligand.h.pdb
REMARK  4 active torsions:
REMARK  status: ('A' for Active; 'I' for Inactive)
REMARK    1  A    between atoms: N_1  and  CA_2
REMARK    2  A    between atoms: CA_2  and  C_3
REMARK    3  A    between atoms: CA_2  and  CB_5
REMARK    4  A    between atoms: C_3  and  O_4
REMARK                            x       y       z     vdW  Elec       q    Type
REMARK                         _______ _______ _______ _____ _____    ______ ____
ROOT
ATOM      1  CA  ALA B   1      10.219   3.633   7.169  0.00  0.00    +0.000 C 
ATOM      2  CB  ALA B   1       9.583   4.692   6.288  0.00  0.00    +0.000 C 
ENDROOT
BRANCH   1   3
ATOM      3  N   ALA B   1      11.474   3.223   6.590  0.00  0.00    +0.000 NA
ATOM      4  H   ALA B   1      11.315   2.877   5.644  0.00  0.00    +0.000 HD
ATOM      5  H   ALA B   1      11.885   2.482   7.158  0.00  0.00    +0.000 HD
ENDBRANCH   1   3
BRANCH   1   6
ATOM      6  C   ALA B   1      10.398   4.154   8.571  0.00  0.00    +0.000 C 
ATOM      7  OXT ALA B   1      11.515   4.519   8.968  0.00  0.00    +0.000 OA
BRANCH   6   8
ATOM      8  O   ALA B   1       9.406   4.218   9.328  0.00  0.00    +0.000 OA
ATOM      9  H   ALA B   1       8.565   3.941   9.022  0.00  0.00    +0.000 HD
ENDBRANCH   6   8
ENDBRANCH   1   6
TORSDOF 3
