REMARK  Name = /storage/kiran-stuff/aaRS/phase2/energy_scoring/vina_182jobs/modern_thrrs_LEU_LEU/ligand.h.pdb
REMARK  7 active torsions:
REMARK  status: ('A' for Active; 'I' for Inactive)
REMARK    1  A    between atoms: N_1  and  CA_2
REMARK    2  A    between atoms: CA_2  and  C_3
REMARK    3  A    between atoms: CA_2  and  CB_5
REMARK    4  A    between atoms: C_3  and  O_4
REMARK    5  A    between atoms: CB_5  and  CG_6
REMARK    6  A    between atoms: CG_6  and  CD1_7
REMARK    7  A    between atoms: CG_6  and  CD2_8
REMARK                            x       y       z     vdW  Elec       q    Type
REMARK                         _______ _______ _______ _____ _____    ______ ____
ROOT
ATOM      1  CA  LEU B   1      -2.741   4.015  -0.681  0.00  0.00    +0.000 C 
ENDROOT
BRANCH   1   2
ATOM      2  N   LEU B   1      -4.157   4.140  -0.922  0.00  0.00    +0.000 NA
ATOM      3  H   LEU B   1      -4.524   3.250  -1.259  0.00  0.00    +0.000 HD
ATOM      4  H   LEU B   1      -4.320   4.863  -1.623  0.00  0.00    +0.000 HD
ENDBRANCH   1   2
BRANCH   1   5
ATOM      5  C   LEU B   1      -2.131   5.309  -0.176  0.00  0.00    +0.000 C 
ATOM      6  OXT LEU B   1      -2.789   6.351  -0.230  0.00  0.00    +0.000 OA
BRANCH   5   7
ATOM      7  O   LEU B   1      -0.986   5.301   0.287  0.00  0.00    +0.000 OA
ATOM      8  H   LEU B   1      -0.500   4.501   0.321  0.00  0.00    +0.000 HD
ENDBRANCH   5   7
ENDBRANCH   1   5
BRANCH   1   9
ATOM      9  CB  LEU B   1      -2.016   3.593  -1.960  0.00  0.00    +0.000 C 
BRANCH   9  10
ATOM     10  CG  LEU B   1      -2.455   2.222  -2.485  0.00  0.00    +0.000 C 
ATOM     11  CD1 LEU B   1      -1.261   1.293  -2.565  0.00  0.00    +0.000 C 
ATOM     12  CD2 LEU B   1      -3.086   2.358  -3.867  0.00  0.00    +0.000 C 
ENDBRANCH   9  10
ENDBRANCH   1   9
TORSDOF 5
