REMARK  Name = /storage/kiran-stuff/aaRS/phase2/energy_scoring/vina_182jobs/modern_prors_PHE_PHE/ligand.h.pdb
REMARK  5 active torsions:
REMARK  status: ('A' for Active; 'I' for Inactive)
REMARK    1  A    between atoms: N_1  and  CA_2
REMARK    2  A    between atoms: CA_2  and  C_3
REMARK    3  A    between atoms: CA_2  and  CB_5
REMARK    4  A    between atoms: C_3  and  OXT_12
REMARK    5  A    between atoms: CB_5  and  CG_6
REMARK                            x       y       z     vdW  Elec       q    Type
REMARK                         _______ _______ _______ _____ _____    ______ ____
ROOT
ATOM      1  CA  PHE B   1     -11.941   7.729   1.249  0.00  0.00    +0.000 C 
ENDROOT
BRANCH   1   2
ATOM      2  N   PHE B   1     -12.197   9.135   0.852  0.00  0.00    +0.000 NA
ATOM      3  H   PHE B   1     -12.968   9.165   0.184  0.00  0.00    +0.000 HD
ATOM      4  H   PHE B   1     -11.359   9.525   0.421  0.00  0.00    +0.000 HD
ENDBRANCH   1   2
BRANCH   1   5
ATOM      5  C   PHE B   1     -10.784   7.713   2.248  0.00  0.00    +0.000 C 
ATOM      6  O   PHE B   1     -10.201   8.768   2.556  0.00  0.00    +0.000 OA
BRANCH   5   7
ATOM      7  OXT PHE B   1     -10.441   6.649   2.777  0.00  0.00    +0.000 OA
ATOM      8  H   PHE B   1     -10.876   5.851   2.549  0.00  0.00    +0.000 HD
ENDBRANCH   5   7
ENDBRANCH   1   5
BRANCH   1   9
ATOM      9  CB  PHE B   1     -11.673   6.951  -0.025  0.00  0.00    +0.000 C 
BRANCH   9  10
ATOM     10  CG  PHE B   1     -10.244   6.664  -0.359  0.00  0.00    +0.000 A 
ATOM     11  CD1 PHE B   1      -9.809   5.350  -0.407  0.00  0.00    +0.000 A 
ATOM     12  CD2 PHE B   1      -9.331   7.686  -0.614  0.00  0.00    +0.000 A 
ATOM     13  CE1 PHE B   1      -8.484   5.057  -0.708  0.00  0.00    +0.000 A 
ATOM     14  CE2 PHE B   1      -8.009   7.383  -0.911  0.00  0.00    +0.000 A 
ATOM     15  CZ  PHE B   1      -7.578   6.071  -0.966  0.00  0.00    +0.000 A 
ENDBRANCH   9  10
ENDBRANCH   1   9
TORSDOF 5
