REMARK  Name = /storage/kiran-stuff/aaRS/phase2/energy_scoring/vina_182jobs/modern_prors_PHE_PHE/ligand.h.pdb
REMARK  5 active torsions:
REMARK  status: ('A' for Active; 'I' for Inactive)
REMARK    1  A    between atoms: N_1  and  CA_2
REMARK    2  A    between atoms: CA_2  and  C_3
REMARK    3  A    between atoms: CA_2  and  CB_5
REMARK    4  A    between atoms: C_3  and  OXT_12
REMARK    5  A    between atoms: CB_5  and  CG_6
REMARK                            x       y       z     vdW  Elec       q    Type
REMARK                         _______ _______ _______ _____ _____    ______ ____
ROOT
ATOM      1  CA  PHE B   1     -11.954   7.578   1.015  0.00  0.00    +0.000 C 
ENDROOT
BRANCH   1   2
ATOM      2  N   PHE B   1     -11.758   8.840   0.262  0.00  0.00    +0.000 NA
ATOM      3  H   PHE B   1     -12.194   8.760  -0.658  0.00  0.00    +0.000 HD
ATOM      4  H   PHE B   1     -10.760   9.019   0.150  0.00  0.00    +0.000 HD
ENDBRANCH   1   2
BRANCH   1   5
ATOM      5  C   PHE B   1     -11.293   7.726   2.385  0.00  0.00    +0.000 C 
ATOM      6  O   PHE B   1     -10.627   8.740   2.658  0.00  0.00    +0.000 OA
BRANCH   5   7
ATOM      7  OXT PHE B   1     -11.444   6.845   3.240  0.00  0.00    +0.000 OA
ATOM      8  H   PHE B   1     -11.945   6.079   3.041  0.00  0.00    +0.000 HD
ENDBRANCH   5   7
ENDBRANCH   1   5
BRANCH   1   9
ATOM      9  CB  PHE B   1     -11.379   6.461   0.164  0.00  0.00    +0.000 C 
BRANCH   9  10
ATOM     10  CG  PHE B   1      -9.946   6.100   0.395  0.00  0.00    +0.000 A 
ATOM     11  CD1 PHE B   1      -9.642   4.949   1.104  0.00  0.00    +0.000 A 
ATOM     12  CD2 PHE B   1      -8.904   6.897  -0.076  0.00  0.00    +0.000 A 
ATOM     13  CE1 PHE B   1      -8.318   4.595   1.338  0.00  0.00    +0.000 A 
ATOM     14  CE2 PHE B   1      -7.585   6.536   0.166  0.00  0.00    +0.000 A 
ATOM     15  CZ  PHE B   1      -7.283   5.384   0.867  0.00  0.00    +0.000 A 
ENDBRANCH   9  10
ENDBRANCH   1   9
TORSDOF 5
