REMARK  Name = /storage/kiran-stuff/aaRS/phase2/energy_scoring/vina_182jobs/modern_thrrs_SER_SER/ligand.h.pdb
REMARK  5 active torsions:
REMARK  status: ('A' for Active; 'I' for Inactive)
REMARK    1  A    between atoms: N_1  and  CA_2
REMARK    2  A    between atoms: CA_2  and  C_3
REMARK    3  A    between atoms: CA_2  and  CB_5
REMARK    4  A    between atoms: C_3  and  O_4
REMARK    5  A    between atoms: CB_5  and  OG_6
REMARK                            x       y       z     vdW  Elec       q    Type
REMARK                         _______ _______ _______ _____ _____    ______ ____
ROOT
ATOM      1  CA  SER B   1       5.982  16.709  -8.646  0.00  0.00    +0.000 C 
ENDROOT
BRANCH   1   2
ATOM      2  N   SER B   1       5.576  17.667  -7.599  0.00  0.00    +0.000 NA
ATOM      3  H   SER B   1       5.678  18.620  -7.952  0.00  0.00    +0.000 HD
ATOM      4  H   SER B   1       6.168  17.544  -6.778  0.00  0.00    +0.000 HD
ENDBRANCH   1   2
BRANCH   1   5
ATOM      5  C   SER B   1       5.167  16.853  -9.912  0.00  0.00    +0.000 C 
ATOM      6  OXT SER B   1       5.691  16.502 -10.978  0.00  0.00    +0.000 OA
BRANCH   5   7
ATOM      7  O   SER B   1       4.013  17.277  -9.879  0.00  0.00    +0.000 OA
ATOM      8  H   SER B   1       3.632  17.538  -9.063  0.00  0.00    +0.000 HD
ENDBRANCH   5   7
ENDBRANCH   1   5
BRANCH   1   9
ATOM      9  CB  SER B   1       5.820  15.285  -8.093  0.00  0.00    +0.000 C 
BRANCH   9  10
ATOM     10  OG  SER B   1       4.489  15.055  -7.695  0.00  0.00    +0.000 OA
ATOM     11  H   SER B   1       4.246  15.684  -6.997  0.00  0.00    +0.000 HD
ENDBRANCH   9  10
ENDBRANCH   1   9
TORSDOF 5
