REMARK  Name = /storage/kiran-stuff/aaRS/phase2/energy_scoring/vina_182jobs/modern_thrrs_SER_SER/ligand.h.pdb
REMARK  5 active torsions:
REMARK  status: ('A' for Active; 'I' for Inactive)
REMARK    1  A    between atoms: N_1  and  CA_2
REMARK    2  A    between atoms: CA_2  and  C_3
REMARK    3  A    between atoms: CA_2  and  CB_5
REMARK    4  A    between atoms: C_3  and  O_4
REMARK    5  A    between atoms: CB_5  and  OG_6
REMARK                            x       y       z     vdW  Elec       q    Type
REMARK                         _______ _______ _______ _____ _____    ______ ____
ROOT
ATOM      1  CA  SER B   1       5.789  16.637  -8.389  0.00  0.00    +0.000 C 
ENDROOT
BRANCH   1   2
ATOM      2  N   SER B   1       5.413  17.666  -7.400  0.00  0.00    +0.000 NA
ATOM      3  H   SER B   1       5.436  18.586  -7.841  0.00  0.00    +0.000 HD
ATOM      4  H   SER B   1       6.071  17.646  -6.621  0.00  0.00    +0.000 HD
ENDBRANCH   1   2
BRANCH   1   5
ATOM      5  C   SER B   1       4.874  16.626  -9.593  0.00  0.00    +0.000 C 
ATOM      6  OXT SER B   1       5.285  16.076 -10.624  0.00  0.00    +0.000 OA
BRANCH   5   7
ATOM      7  O   SER B   1       3.750  17.122  -9.540  0.00  0.00    +0.000 OA
ATOM      8  H   SER B   1       3.456  17.534  -8.751  0.00  0.00    +0.000 HD
ENDBRANCH   5   7
ENDBRANCH   1   5
BRANCH   1   9
ATOM      9  CB  SER B   1       5.747  15.263  -7.702  0.00  0.00    +0.000 C 
BRANCH   9  10
ATOM     10  OG  SER B   1       4.467  15.012  -7.171  0.00  0.00    +0.000 OA
ATOM     11  H   SER B   1       4.251  15.691  -6.512  0.00  0.00    +0.000 HD
ENDBRANCH   9  10
ENDBRANCH   1   9
TORSDOF 5
