REMARK  Name = /storage/kiran-stuff/aaRS/phase2/energy_scoring/vina_182jobs/anc_prors_edit_LEU_LEU/ligand.h.pdb
REMARK  7 active torsions:
REMARK  status: ('A' for Active; 'I' for Inactive)
REMARK    1  A    between atoms: N_1  and  CA_2
REMARK    2  A    between atoms: CA_2  and  C_3
REMARK    3  A    between atoms: CA_2  and  CB_5
REMARK    4  A    between atoms: C_3  and  OXT_9
REMARK    5  A    between atoms: CB_5  and  CG_6
REMARK    6  A    between atoms: CG_6  and  CD1_7
REMARK    7  A    between atoms: CG_6  and  CD2_8
REMARK                            x       y       z     vdW  Elec       q    Type
REMARK                         _______ _______ _______ _____ _____    ______ ____
ROOT
ATOM      1  CA  LEU B   1      13.726 -14.024  -8.766  0.00  0.00    +0.000 C 
ENDROOT
BRANCH   1   2
ATOM      2  N   LEU B   1      12.573 -13.263  -8.331  0.00  0.00    +0.000 NA
ATOM      3  H   LEU B   1      12.073 -12.907  -9.146  0.00  0.00    +0.000 HD
ATOM      4  H   LEU B   1      12.879 -12.482  -7.752  0.00  0.00    +0.000 HD
ENDBRANCH   1   2
BRANCH   1   5
ATOM      5  C   LEU B   1      13.297 -15.137  -9.697  0.00  0.00    +0.000 C 
ATOM      6  O   LEU B   1      13.481 -15.022 -10.922  0.00  0.00    +0.000 OA
BRANCH   5   7
ATOM      7  OXT LEU B   1      12.734 -16.145  -9.246  0.00  0.00    +0.000 OA
ATOM      8  H   LEU B   1      12.594 -16.230  -8.324  0.00  0.00    +0.000 HD
ENDBRANCH   5   7
ENDBRANCH   1   5
BRANCH   1   9
ATOM      9  CB  LEU B   1      14.485 -14.564  -7.587  0.00  0.00    +0.000 C 
BRANCH   9  10
ATOM     10  CG  LEU B   1      13.915 -14.149  -6.228  0.00  0.00    +0.000 C 
ATOM     11  CD1 LEU B   1      14.592 -14.969  -5.143  0.00  0.00    +0.000 C 
ATOM     12  CD2 LEU B   1      14.105 -12.663  -6.026  0.00  0.00    +0.000 C 
ENDBRANCH   9  10
ENDBRANCH   1   9
TORSDOF 5
