REMARK  Name = /storage/kiran-stuff/aaRS/phase2/energy_scoring/vina_182jobs/anc_prors_edit_LEU_LEU/ligand.h.pdb
REMARK  7 active torsions:
REMARK  status: ('A' for Active; 'I' for Inactive)
REMARK    1  A    between atoms: N_1  and  CA_2
REMARK    2  A    between atoms: CA_2  and  C_3
REMARK    3  A    between atoms: CA_2  and  CB_5
REMARK    4  A    between atoms: C_3  and  OXT_9
REMARK    5  A    between atoms: CB_5  and  CG_6
REMARK    6  A    between atoms: CG_6  and  CD1_7
REMARK    7  A    between atoms: CG_6  and  CD2_8
REMARK                            x       y       z     vdW  Elec       q    Type
REMARK                         _______ _______ _______ _____ _____    ______ ____
ROOT
ATOM      1  CA  LEU B   1      13.838 -13.294  -8.864  0.00  0.00    +0.000 C 
ENDROOT
BRANCH   1   2
ATOM      2  N   LEU B   1      12.663 -12.467  -9.050  0.00  0.00    +0.000 NA
ATOM      3  H   LEU B   1      12.491 -12.340 -10.047  0.00  0.00    +0.000 HD
ATOM      4  H   LEU B   1      12.814 -11.558  -8.613  0.00  0.00    +0.000 HD
ENDBRANCH   1   2
BRANCH   1   5
ATOM      5  C   LEU B   1      13.664 -14.616  -9.580  0.00  0.00    +0.000 C 
ATOM      6  O   LEU B   1      14.428 -14.916 -10.515  0.00  0.00    +0.000 OA
BRANCH   5   7
ATOM      7  OXT LEU B   1      12.745 -15.383  -9.259  0.00  0.00    +0.000 OA
ATOM      8  H   LEU B   1      12.170 -15.156  -8.555  0.00  0.00    +0.000 HD
ENDBRANCH   5   7
ENDBRANCH   1   5
BRANCH   1   9
ATOM      9  CB  LEU B   1      14.119 -13.500  -7.402  0.00  0.00    +0.000 C 
BRANCH   9  10
ATOM     10  CG  LEU B   1      14.100 -12.216  -6.570  0.00  0.00    +0.000 C 
ATOM     11  CD1 LEU B   1      14.333 -12.574  -5.112  0.00  0.00    +0.000 C 
ATOM     12  CD2 LEU B   1      15.138 -11.251  -7.096  0.00  0.00    +0.000 C 
ENDBRANCH   9  10
ENDBRANCH   1   9
TORSDOF 5
