REMARK  Name = /storage/kiran-stuff/aaRS/phase2/energy_scoring/vina_182jobs/anc_thrrs_cat_zn_GLY_GLY/ligand.h.pdb
REMARK  3 active torsions:
REMARK  status: ('A' for Active; 'I' for Inactive)
REMARK    1  A    between atoms: N_1  and  CA_2
REMARK    2  A    between atoms: CA_2  and  C_3
REMARK    3  A    between atoms: C_3  and  OXT_5
REMARK                            x       y       z     vdW  Elec       q    Type
REMARK                         _______ _______ _______ _____ _____    ______ ____
ROOT
ATOM      1  CA  GLY B   1       2.788  -4.990  -2.703  0.00  0.00    +0.000 C 
ENDROOT
BRANCH   1   2
ATOM      2  N   GLY B   1       3.314  -4.292  -1.539  0.00  0.00    +0.000 NA
ATOM      3  H   GLY B   1       2.544  -3.880  -1.013  0.00  0.00    +0.000 HD
ATOM      4  H   GLY B   1       3.950  -3.556  -1.844  0.00  0.00    +0.000 HD
ENDBRANCH   1   2
BRANCH   1   5
ATOM      5  C   GLY B   1       3.900  -5.608  -3.500  0.00  0.00    +0.000 C 
ATOM      6  O   GLY B   1       4.844  -4.917  -3.886  0.00  0.00    +0.000 OA
BRANCH   5   7
ATOM      7  OXT GLY B   1       3.885  -6.819  -3.752  0.00  0.00    +0.000 OA
ATOM      8  H   GLY B   1       3.170  -7.350  -3.462  0.00  0.00    +0.000 HD
ENDBRANCH   5   7
ENDBRANCH   1   5
TORSDOF 3
