REMARK  Name = /storage/kiran-stuff/aaRS/phase2/energy_scoring/vina_182jobs/anc_thrrs_cat_zn_GLY_GLY/ligand.h.pdb
REMARK  3 active torsions:
REMARK  status: ('A' for Active; 'I' for Inactive)
REMARK    1  A    between atoms: N_1  and  CA_2
REMARK    2  A    between atoms: CA_2  and  C_3
REMARK    3  A    between atoms: C_3  and  OXT_5
REMARK                            x       y       z     vdW  Elec       q    Type
REMARK                         _______ _______ _______ _____ _____    ______ ____
ROOT
ATOM      1  CA  GLY B   1       2.281  -4.967  -2.348  0.00  0.00    +0.000 C 
ENDROOT
BRANCH   1   2
ATOM      2  N   GLY B   1       3.036  -3.808  -1.897  0.00  0.00    +0.000 NA
ATOM      3  H   GLY B   1       2.396  -3.036  -1.712  0.00  0.00    +0.000 HD
ATOM      4  H   GLY B   1       3.700  -3.533  -2.620  0.00  0.00    +0.000 HD
ENDBRANCH   1   2
BRANCH   1   5
ATOM      5  C   GLY B   1       3.198  -6.122  -2.629  0.00  0.00    +0.000 C 
ATOM      6  O   GLY B   1       3.963  -6.086  -3.594  0.00  0.00    +0.000 OA
BRANCH   5   7
ATOM      7  OXT GLY B   1       3.207  -7.106  -1.879  0.00  0.00    +0.000 OA
ATOM      8  H   GLY B   1       2.628  -7.140  -1.143  0.00  0.00    +0.000 HD
ENDBRANCH   5   7
ENDBRANCH   1   5
TORSDOF 3
