REMARK  Name = /storage/kiran-stuff/aaRS/phase2/energy_scoring/vina_182jobs/anc_thrrs_cat_zn_PHE_PHE/ligand.h.pdb
REMARK  5 active torsions:
REMARK  status: ('A' for Active; 'I' for Inactive)
REMARK    1  A    between atoms: N_1  and  CA_2
REMARK    2  A    between atoms: CA_2  and  C_3
REMARK    3  A    between atoms: CA_2  and  CB_5
REMARK    4  A    between atoms: C_3  and  O_4
REMARK    5  A    between atoms: CB_5  and  CG_6
REMARK                            x       y       z     vdW  Elec       q    Type
REMARK                         _______ _______ _______ _____ _____    ______ ____
ROOT
ATOM      1  CA  PHE B   1       3.684   8.206 -16.768  0.00  0.00    +0.000 C 
ENDROOT
BRANCH   1   2
ATOM      2  N   PHE B   1       2.865   9.114 -15.962  0.00  0.00    +0.000 NA
ATOM      3  H   PHE B   1       1.880   8.978 -16.191  0.00  0.00    +0.000 HD
ATOM      4  H   PHE B   1       3.130  10.079 -16.161  0.00  0.00    +0.000 HD
ENDBRANCH   1   2
BRANCH   1   5
ATOM      5  C   PHE B   1       3.304   6.747 -16.563  0.00  0.00    +0.000 C 
ATOM      6  OXT PHE B   1       3.958   5.874 -17.130  0.00  0.00    +0.000 OA
BRANCH   5   7
ATOM      7  O   PHE B   1       2.328   6.429 -15.874  0.00  0.00    +0.000 OA
ATOM      8  H   PHE B   1       1.826   7.090 -15.440  0.00  0.00    +0.000 HD
ENDBRANCH   5   7
ENDBRANCH   1   5
BRANCH   1   9
ATOM      9  CB  PHE B   1       5.160   8.366 -16.467  0.00  0.00    +0.000 C 
BRANCH   9  10
ATOM     10  CG  PHE B   1       5.540   8.595 -15.041  0.00  0.00    +0.000 A 
ATOM     11  CD1 PHE B   1       6.638   9.366 -14.751  0.00  0.00    +0.000 A 
ATOM     12  CD2 PHE B   1       4.836   8.030 -13.992  0.00  0.00    +0.000 A 
ATOM     13  CE1 PHE B   1       7.009   9.589 -13.445  0.00  0.00    +0.000 A 
ATOM     14  CE2 PHE B   1       5.218   8.249 -12.683  0.00  0.00    +0.000 A 
ATOM     15  CZ  PHE B   1       6.309   9.023 -12.404  0.00  0.00    +0.000 A 
ENDBRANCH   9  10
ENDBRANCH   1   9
TORSDOF 5
