REMARK  Name = /storage/kiran-stuff/aaRS/phase2/energy_scoring/vina_182jobs/anc_thrrs_cat_zn_PHE_PHE/ligand.h.pdb
REMARK  5 active torsions:
REMARK  status: ('A' for Active; 'I' for Inactive)
REMARK    1  A    between atoms: N_1  and  CA_2
REMARK    2  A    between atoms: CA_2  and  C_3
REMARK    3  A    between atoms: CA_2  and  CB_5
REMARK    4  A    between atoms: C_3  and  O_4
REMARK    5  A    between atoms: CB_5  and  CG_6
REMARK                            x       y       z     vdW  Elec       q    Type
REMARK                         _______ _______ _______ _____ _____    ______ ____
ROOT
ATOM      1  CA  PHE B   1       3.686   8.330 -16.651  0.00  0.00    +0.000 C 
ENDROOT
BRANCH   1   2
ATOM      2  N   PHE B   1       3.336   9.625 -16.064  0.00  0.00    +0.000 NA
ATOM      3  H   PHE B   1       2.340   9.801 -16.194  0.00  0.00    +0.000 HD
ATOM      4  H   PHE B   1       3.874  10.362 -16.521  0.00  0.00    +0.000 HD
ENDBRANCH   1   2
BRANCH   1   5
ATOM      5  C   PHE B   1       2.879   7.187 -16.053  0.00  0.00    +0.000 C 
ATOM      6  OXT PHE B   1       3.140   6.033 -16.386  0.00  0.00    +0.000 OA
BRANCH   5   7
ATOM      7  O   PHE B   1       1.943   7.401 -15.274  0.00  0.00    +0.000 OA
ATOM      8  H   PHE B   1       1.739   8.278 -15.017  0.00  0.00    +0.000 HD
ENDBRANCH   5   7
ENDBRANCH   1   5
BRANCH   1   9
ATOM      9  CB  PHE B   1       5.159   8.018 -16.485  0.00  0.00    +0.000 C 
BRANCH   9  10
ATOM     10  CG  PHE B   1       5.760   8.279 -15.142  0.00  0.00    +0.000 A 
ATOM     11  CD1 PHE B   1       7.125   8.320 -15.011  0.00  0.00    +0.000 A 
ATOM     12  CD2 PHE B   1       4.983   8.453 -14.010  0.00  0.00    +0.000 A 
ATOM     13  CE1 PHE B   1       7.702   8.557 -13.785  0.00  0.00    +0.000 A 
ATOM     14  CE2 PHE B   1       5.567   8.680 -12.779  0.00  0.00    +0.000 A 
ATOM     15  CZ  PHE B   1       6.927   8.726 -12.660  0.00  0.00    +0.000 A 
ENDBRANCH   9  10
ENDBRANCH   1   9
TORSDOF 5
