REMARK  Name = /storage/kiran-stuff/aaRS/phase2/energy_scoring/vina_182jobs/modern_thrrs_ecoli_zn_HIS_HIS/ligand.h.pdb
REMARK  5 active torsions:
REMARK  status: ('A' for Active; 'I' for Inactive)
REMARK    1  A    between atoms: N_1  and  CA_2
REMARK    2  A    between atoms: CA_2  and  C_3
REMARK    3  A    between atoms: CA_2  and  CB_5
REMARK    4  A    between atoms: C_3  and  OXT_11
REMARK    5  A    between atoms: CB_5  and  CG_6
REMARK                            x       y       z     vdW  Elec       q    Type
REMARK                         _______ _______ _______ _____ _____    ______ ____
ROOT
ATOM      1  CA  HIS B   1       2.250   5.879 -13.206  0.00  0.00    +0.000 C 
ENDROOT
BRANCH   1   2
ATOM      2  N   HIS B   1       0.841   5.590 -13.018  0.00  0.00    +0.000 NA
ATOM      3  H   HIS B   1       0.464   5.167 -13.866  0.00  0.00    +0.000 HD
ATOM      4  H   HIS B   1       0.340   6.456 -12.818  0.00  0.00    +0.000 HD
ENDBRANCH   1   2
BRANCH   1   5
ATOM      5  C   HIS B   1       2.940   4.591 -13.479  0.00  0.00    +0.000 C 
ATOM      6  O   HIS B   1       3.890   4.574 -14.265  0.00  0.00    +0.000 OA
BRANCH   5   7
ATOM      7  OXT HIS B   1       2.565   3.584 -12.890  0.00  0.00    +0.000 OA
ATOM      8  H   HIS B   1       1.840   3.630 -12.299  0.00  0.00    +0.000 HD
ENDBRANCH   5   7
ENDBRANCH   1   5
BRANCH   1   9
ATOM      9  CB  HIS B   1       2.823   6.503 -11.965  0.00  0.00    +0.000 C 
BRANCH   9  10
ATOM     10  CG  HIS B   1       1.835   7.358 -11.293  0.00  0.00    +0.000 A 
ATOM     11  ND1 HIS B   1       1.775   7.637 -10.000  0.00  0.00    +0.000 N 
ATOM     12  CD2 HIS B   1       0.798   7.968 -11.878  0.00  0.00    +0.000 A 
ATOM     13  CE1 HIS B   1       0.715   8.421  -9.796  0.00  0.00    +0.000 A 
ATOM     14  NE2 HIS B   1       0.122   8.625 -10.945  0.00  0.00    +0.000 NA
ATOM     15  H   HIS B   1       2.403   7.321  -9.310  0.00  0.00    +0.000 HD
ENDBRANCH   9  10
ENDBRANCH   1   9
TORSDOF 5
