REMARK  Name = /storage/kiran-stuff/aaRS/phase2/energy_scoring/vina_182jobs/modern_thrrs_HIS_HIS/ligand.h.pdb
REMARK  5 active torsions:
REMARK  status: ('A' for Active; 'I' for Inactive)
REMARK    1  A    between atoms: N_1  and  CA_2
REMARK    2  A    between atoms: CA_2  and  C_3
REMARK    3  A    between atoms: CA_2  and  CB_5
REMARK    4  A    between atoms: C_3  and  O_4
REMARK    5  A    between atoms: CB_5  and  CG_6
REMARK                            x       y       z     vdW  Elec       q    Type
REMARK                         _______ _______ _______ _____ _____    ______ ____
ROOT
ATOM      1  CA  HIS B   1       6.382  15.792 -10.931  0.00  0.00    +0.000 C 
ENDROOT
BRANCH   1   2
ATOM      2  N   HIS B   1       6.108  14.474 -11.490  0.00  0.00    +0.000 NA
ATOM      3  H   HIS B   1       5.225  14.498 -12.000  0.00  0.00    +0.000 HD
ATOM      4  H   HIS B   1       6.046  13.791 -10.735  0.00  0.00    +0.000 HD
ENDBRANCH   1   2
BRANCH   1   5
ATOM      5  C   HIS B   1       6.448  16.845 -12.018  0.00  0.00    +0.000 C 
ATOM      6  OXT HIS B   1       7.108  16.606 -13.050  0.00  0.00    +0.000 OA
BRANCH   5   7
ATOM      7  O   HIS B   1       5.868  17.930 -11.856  0.00  0.00    +0.000 OA
ATOM      8  H   HIS B   1       5.378  18.087 -11.073  0.00  0.00    +0.000 HD
ENDBRANCH   5   7
ENDBRANCH   1   5
BRANCH   1   9
ATOM      9  CB  HIS B   1       7.705  15.797 -10.154  0.00  0.00    +0.000 C 
BRANCH   9  10
ATOM     10  CG  HIS B   1       7.743  14.732  -9.115  0.00  0.00    +0.000 A 
ATOM     11  ND1 HIS B   1       7.138  14.812  -7.920  0.00  0.00    +0.000 N 
ATOM     12  CD2 HIS B   1       8.345  13.519  -9.187  0.00  0.00    +0.000 A 
ATOM     13  CE1 HIS B   1       7.361  13.699  -7.267  0.00  0.00    +0.000 A 
ATOM     14  NE2 HIS B   1       8.105  12.893  -8.033  0.00  0.00    +0.000 NA
ATOM     15  H   HIS B   1       6.615  15.578  -7.590  0.00  0.00    +0.000 HD
ENDBRANCH   9  10
ENDBRANCH   1   9
TORSDOF 5
