REMARK  Name = /storage/kiran-stuff/aaRS/phase2/energy_scoring/vina_182jobs/anc_thrrs_cat_THR_THR/ligand.h.pdb
REMARK  6 active torsions:
REMARK  status: ('A' for Active; 'I' for Inactive)
REMARK    1  A    between atoms: N_1  and  CA_2
REMARK    2  A    between atoms: CA_2  and  C_3
REMARK    3  A    between atoms: CA_2  and  CB_5
REMARK    4  A    between atoms: C_3  and  O_4
REMARK    5  A    between atoms: CB_5  and  OG1_6
REMARK    6  A    between atoms: CB_5  and  CG2_7
REMARK                            x       y       z     vdW  Elec       q    Type
REMARK                         _______ _______ _______ _____ _____    ______ ____
ROOT
ATOM      1  CA  THR B   1      -3.175   2.289   5.384  0.00  0.00    +0.000 C 
ENDROOT
BRANCH   1   2
ATOM      2  N   THR B   1      -3.647   2.701   4.063  0.00  0.00    +0.000 NA
ATOM      3  H   THR B   1      -3.049   2.293   3.346  0.00  0.00    +0.000 HD
ATOM      4  H   THR B   1      -3.617   3.718   3.994  0.00  0.00    +0.000 HD
ENDBRANCH   1   2
BRANCH   1   5
ATOM      5  C   THR B   1      -4.056   2.889   6.461  0.00  0.00    +0.000 C 
ATOM      6  OXT THR B   1      -4.737   3.880   6.195  0.00  0.00    +0.000 OA
BRANCH   5   7
ATOM      7  O   THR B   1      -4.019   2.407   7.615  0.00  0.00    +0.000 OA
ATOM      8  H   THR B   1      -3.492   1.652   7.791  0.00  0.00    +0.000 HD
ENDBRANCH   5   7
ENDBRANCH   1   5
BRANCH   1   9
ATOM      9  CB  THR B   1      -1.725   2.691   5.614  0.00  0.00    +0.000 C 
ATOM     10  CG2 THR B   1      -0.908   1.502   6.057  0.00  0.00    +0.000 C 
BRANCH   9  11
ATOM     11  OG1 THR B   1      -1.176   3.232   4.431  0.00  0.00    +0.000 OA
ATOM     12  H   THR B   1      -1.196   2.563   3.729  0.00  0.00    +0.000 HD
ENDBRANCH   9  11
ENDBRANCH   1   9
TORSDOF 5
