REMARK  Name = /storage/kiran-stuff/aaRS/phase2/energy_scoring/vina_182jobs/anc_thrrs_cat_CYS_CYS/ligand.h.pdb
REMARK  5 active torsions:
REMARK  status: ('A' for Active; 'I' for Inactive)
REMARK    1  A    between atoms: N_1  and  CA_2
REMARK    2  A    between atoms: CA_2  and  C_3
REMARK    3  A    between atoms: CA_2  and  CB_5
REMARK    4  A    between atoms: C_3  and  O_4
REMARK    5  A    between atoms: CB_5  and  SG_6
REMARK                            x       y       z     vdW  Elec       q    Type
REMARK                         _______ _______ _______ _____ _____    ______ ____
ROOT
ATOM      1  CA  CYS B   1      -2.690   7.399  -1.673  0.00  0.00    +0.000 C 
ENDROOT
BRANCH   1   2
ATOM      2  N   CYS B   1      -2.464   6.388  -2.685  0.00  0.00    +0.000 NA
ATOM      3  H   CYS B   1      -1.502   6.053  -2.623  0.00  0.00    +0.000 HD
ATOM      4  H   CYS B   1      -2.625   6.790  -3.609  0.00  0.00    +0.000 HD
ENDBRANCH   1   2
BRANCH   1   5
ATOM      5  C   CYS B   1      -4.112   7.907  -1.751  0.00  0.00    +0.000 C 
ATOM      6  OXT CYS B   1      -4.703   7.914  -2.837  0.00  0.00    +0.000 OA
BRANCH   5   7
ATOM      7  O   CYS B   1      -4.672   8.333  -0.732  0.00  0.00    +0.000 OA
ATOM      8  H   CYS B   1      -4.220   8.326   0.089  0.00  0.00    +0.000 HD
ENDBRANCH   5   7
ENDBRANCH   1   5
BRANCH   1   9
ATOM      9  CB  CYS B   1      -1.699   8.519  -1.858  0.00  0.00    +0.000 C 
BRANCH   9  10
ATOM     10  SG  CYS B   1      -0.150   8.025  -2.585  0.00  0.00    +0.000 S 
ATOM     11  H   CYS B   1      -0.370   7.544  -3.838  0.00  0.00    +0.000 HD
ENDBRANCH   9  10
ENDBRANCH   1   9
TORSDOF 5
