REMARK  Name = /storage/kiran-stuff/aaRS/phase2/energy_scoring/vina_182jobs/anc_thrrs_cat_CYS_CYS/ligand.h.pdb
REMARK  5 active torsions:
REMARK  status: ('A' for Active; 'I' for Inactive)
REMARK    1  A    between atoms: N_1  and  CA_2
REMARK    2  A    between atoms: CA_2  and  C_3
REMARK    3  A    between atoms: CA_2  and  CB_5
REMARK    4  A    between atoms: C_3  and  O_4
REMARK    5  A    between atoms: CB_5  and  SG_6
REMARK                            x       y       z     vdW  Elec       q    Type
REMARK                         _______ _______ _______ _____ _____    ______ ____
ROOT
ATOM      1  CA  CYS B   1      -3.814   6.470  -0.607  0.00  0.00    +0.000 C 
ENDROOT
BRANCH   1   2
ATOM      2  N   CYS B   1      -3.729   5.722  -1.844  0.00  0.00    +0.000 NA
ATOM      3  H   CYS B   1      -2.827   5.897  -2.287  0.00  0.00    +0.000 HD
ATOM      4  H   CYS B   1      -4.478   6.016  -2.471  0.00  0.00    +0.000 HD
ENDBRANCH   1   2
BRANCH   1   5
ATOM      5  C   CYS B   1      -5.146   6.222   0.063  0.00  0.00    +0.000 C 
ATOM      6  OXT CYS B   1      -6.154   6.029  -0.627  0.00  0.00    +0.000 OA
BRANCH   5   7
ATOM      7  O   CYS B   1      -5.227   6.232   1.299  0.00  0.00    +0.000 OA
ATOM      8  H   CYS B   1      -4.461   6.378   1.817  0.00  0.00    +0.000 HD
ENDBRANCH   5   7
ENDBRANCH   1   5
BRANCH   1   9
ATOM      9  CB  CYS B   1      -3.613   7.935  -0.897  0.00  0.00    +0.000 C 
BRANCH   9  10
ATOM     10  SG  CYS B   1      -1.983   8.359  -1.476  0.00  0.00    +0.000 S 
ATOM     11  H   CYS B   1      -1.746   7.734  -2.661  0.00  0.00    +0.000 HD
ENDBRANCH   9  10
ENDBRANCH   1   9
TORSDOF 5
