REMARK  Name = /storage/kiran-stuff/aaRS/phase2/energy_scoring/vina_182jobs/anc_thrrs_cat_GLN_GLN/ligand.h.pdb
REMARK  6 active torsions:
REMARK  status: ('A' for Active; 'I' for Inactive)
REMARK    1  A    between atoms: N_1  and  CA_2
REMARK    2  A    between atoms: CA_2  and  C_3
REMARK    3  A    between atoms: CA_2  and  CB_5
REMARK    4  A    between atoms: C_3  and  O_4
REMARK    5  A    between atoms: CB_5  and  CG_6
REMARK    6  A    between atoms: CG_6  and  CD_7
REMARK                            x       y       z     vdW  Elec       q    Type
REMARK                         _______ _______ _______ _____ _____    ______ ____
ROOT
ATOM      1  CA  GLN B   1       5.690  -1.596  -2.088  0.00  0.00    +0.000 C 
ENDROOT
BRANCH   1   2
ATOM      2  N   GLN B   1       5.769  -2.884  -1.446  0.00  0.00    +0.000 NA
ATOM      3  H   GLN B   1       5.444  -3.605  -2.089  0.00  0.00    +0.000 HD
ATOM      4  H   GLN B   1       5.183  -2.884  -0.610  0.00  0.00    +0.000 HD
ENDBRANCH   1   2
BRANCH   1   5
ATOM      5  C   GLN B   1       6.525  -1.563  -3.360  0.00  0.00    +0.000 C 
ATOM      6  OXT GLN B   1       6.280  -0.715  -4.219  0.00  0.00    +0.000 OA
BRANCH   5   7
ATOM      7  O   GLN B   1       7.431  -2.360  -3.536  0.00  0.00    +0.000 OA
ATOM      8  H   GLN B   1       7.620  -3.007  -2.885  0.00  0.00    +0.000 HD
ENDBRANCH   5   7
ENDBRANCH   1   5
BRANCH   1   9
ATOM      9  CB  GLN B   1       6.172  -0.463  -1.152  0.00  0.00    +0.000 C 
BRANCH   9  10
ATOM     10  CG  GLN B   1       7.089  -0.910  -0.052  0.00  0.00    +0.000 C 
BRANCH  10  11
ATOM     11  CD  GLN B   1       6.357  -1.005   1.242  0.00  0.00    +0.000 C 
ATOM     12  OE1 GLN B   1       6.245  -0.036   1.955  0.00  0.00    +0.000 OA
ATOM     13  NE2 GLN B   1       5.805  -2.151   1.580  0.00  0.00    +0.000 N 
ATOM     14  H   GLN B   1       5.900  -2.935   0.994  0.00  0.00    +0.000 HD
ATOM     15  H   GLN B   1       5.297  -2.223   2.421  0.00  0.00    +0.000 HD
ENDBRANCH  10  11
ENDBRANCH   9  10
ENDBRANCH   1   9
TORSDOF 6
