REMARK  Name = /storage/kiran-stuff/aaRS/phase2/energy_scoring/vina_182jobs/anc_thrrs_cat_GLN_GLN/ligand.h.pdb
REMARK  6 active torsions:
REMARK  status: ('A' for Active; 'I' for Inactive)
REMARK    1  A    between atoms: N_1  and  CA_2
REMARK    2  A    between atoms: CA_2  and  C_3
REMARK    3  A    between atoms: CA_2  and  CB_5
REMARK    4  A    between atoms: C_3  and  O_4
REMARK    5  A    between atoms: CB_5  and  CG_6
REMARK    6  A    between atoms: CG_6  and  CD_7
REMARK                            x       y       z     vdW  Elec       q    Type
REMARK                         _______ _______ _______ _____ _____    ______ ____
ROOT
ATOM      1  CA  GLN B   1       5.607  -1.643  -2.046  0.00  0.00    +0.000 C 
ENDROOT
BRANCH   1   2
ATOM      2  N   GLN B   1       5.896  -2.808  -1.248  0.00  0.00    +0.000 NA
ATOM      3  H   GLN B   1       5.649  -3.648  -1.771  0.00  0.00    +0.000 HD
ATOM      4  H   GLN B   1       5.353  -2.773  -0.385  0.00  0.00    +0.000 HD
ENDBRANCH   1   2
BRANCH   1   5
ATOM      5  C   GLN B   1       6.373  -1.673  -3.361  0.00  0.00    +0.000 C 
ATOM      6  OXT GLN B   1       5.952  -1.021  -4.318  0.00  0.00    +0.000 OA
BRANCH   5   7
ATOM      7  O   GLN B   1       7.395  -2.328  -3.477  0.00  0.00    +0.000 OA
ATOM      8  H   GLN B   1       7.718  -2.825  -2.751  0.00  0.00    +0.000 HD
ENDBRANCH   5   7
ENDBRANCH   1   5
BRANCH   1   9
ATOM      9  CB  GLN B   1       5.964  -0.338  -1.297  0.00  0.00    +0.000 C 
BRANCH   9  10
ATOM     10  CG  GLN B   1       7.121  -0.459  -0.349  0.00  0.00    +0.000 C 
BRANCH  10  11
ATOM     11  CD  GLN B   1       6.653  -0.854   1.009  0.00  0.00    +0.000 C 
ATOM     12  OE1 GLN B   1       6.257  -0.019   1.788  0.00  0.00    +0.000 OA
ATOM     13  NE2 GLN B   1       6.646  -2.129   1.336  0.00  0.00    +0.000 N 
ATOM     14  H   GLN B   1       6.970  -2.803   0.696  0.00  0.00    +0.000 HD
ATOM     15  H   GLN B   1       6.317  -2.408   2.221  0.00  0.00    +0.000 HD
ENDBRANCH  10  11
ENDBRANCH   9  10
ENDBRANCH   1   9
TORSDOF 6
