REMARK  Name = /storage/kiran-stuff/aaRS/phase2/energy_scoring/vina_182jobs/modern_thrrs_ecoli_zn_PRO_PRO/ligand.h.pdb
REMARK  2 active torsions:
REMARK  status: ('A' for Active; 'I' for Inactive)
REMARK    1  A    between atoms: CA_2  and  C_3
REMARK    2  A    between atoms: C_3  and  O_4
REMARK                            x       y       z     vdW  Elec       q    Type
REMARK                         _______ _______ _______ _____ _____    ______ ____
ROOT
ATOM      1  N   PRO B   1      10.858   3.669   7.339  0.00  0.00    +0.000 NA
ATOM      2  CA  PRO B   1      10.344   4.080   8.649  0.00  0.00    +0.000 C 
ATOM      3  CB  PRO B   1       9.094   4.866   8.335  0.00  0.00    +0.000 C 
ATOM      4  CG  PRO B   1       9.161   5.220   6.911  0.00  0.00    +0.000 C 
ATOM      5  CD  PRO B   1      10.176   4.363   6.317  0.00  0.00    +0.000 C 
ATOM      6  H   PRO B   1      11.854   3.881   7.285  0.00  0.00    +0.000 HD
ENDROOT
BRANCH   2   7
ATOM      7  C   PRO B   1      10.027   2.903   9.570  0.00  0.00    +0.000 C 
ATOM      8  OXT PRO B   1      10.064   1.753   9.126  0.00  0.00    +0.000 OA
BRANCH   7   9
ATOM      9  O   PRO B   1       9.666   3.136  10.741  0.00  0.00    +0.000 OA
ATOM     10  H   PRO B   1       9.644   4.017  11.059  0.00  0.00    +0.000 HD
ENDBRANCH   7   9
ENDBRANCH   2   7
TORSDOF 2
