REMARK  Name = /storage/kiran-stuff/aaRS/phase2/energy_scoring/vina_182jobs/modern_thrrs_ecoli_zn_PRO_PRO/ligand.h.pdb
REMARK  2 active torsions:
REMARK  status: ('A' for Active; 'I' for Inactive)
REMARK    1  A    between atoms: CA_2  and  C_3
REMARK    2  A    between atoms: C_3  and  O_4
REMARK                            x       y       z     vdW  Elec       q    Type
REMARK                         _______ _______ _______ _____ _____    ______ ____
ROOT
ATOM      1  N   PRO B   1      10.917   3.425   7.572  0.00  0.00    +0.000 NA
ATOM      2  CA  PRO B   1      10.292   4.267   8.596  0.00  0.00    +0.000 C 
ATOM      3  CB  PRO B   1       9.179   4.982   7.869  0.00  0.00    +0.000 C 
ATOM      4  CG  PRO B   1       9.457   4.852   6.433  0.00  0.00    +0.000 C 
ATOM      5  CD  PRO B   1      10.442   3.790   6.295  0.00  0.00    +0.000 C 
ATOM      6  H   PRO B   1      11.929   3.548   7.604  0.00  0.00    +0.000 HD
ENDROOT
BRANCH   2   7
ATOM      7  C   PRO B   1       9.744   3.473   9.780  0.00  0.00    +0.000 C 
ATOM      8  OXT PRO B   1       9.715   2.241   9.728  0.00  0.00    +0.000 OA
BRANCH   7   9
ATOM      9  O   PRO B   1       9.268   4.093  10.752  0.00  0.00    +0.000 OA
ATOM     10  H   PRO B   1       9.300   5.029  10.772  0.00  0.00    +0.000 HD
ENDBRANCH   7   9
ENDBRANCH   2   7
TORSDOF 2
