REMARK  Name = /storage/kiran-stuff/aaRS/phase2/energy_scoring/vina_182jobs/anc_prors_cat_ARG_ARG/ligand.h.pdb
REMARK  7 active torsions:
REMARK  status: ('A' for Active; 'I' for Inactive)
REMARK    1  A    between atoms: N_1  and  CA_2
REMARK    2  A    between atoms: CA_2  and  C_3
REMARK    3  A    between atoms: CA_2  and  CB_5
REMARK    4  A    between atoms: C_3  and  OXT_12
REMARK    5  A    between atoms: CB_5  and  CG_6
REMARK    6  A    between atoms: CG_6  and  CD_7
REMARK    7  A    between atoms: CD_7  and  NE_8
REMARK                            x       y       z     vdW  Elec       q    Type
REMARK                         _______ _______ _______ _____ _____    ______ ____
ROOT
ATOM      1  CG  ARG B   1       0.136 -13.643   1.987  0.00  0.00    +0.000 C 
ENDROOT
BRANCH   1   2
ATOM      2  CB  ARG B   1       0.154 -13.566   3.494  0.00  0.00    +0.000 C 
BRANCH   2   3
ATOM      3  CA  ARG B   1       0.582 -12.185   4.038  0.00  0.00    +0.000 C 
BRANCH   3   4
ATOM      4  N   ARG B   1       0.689 -11.217   2.969  0.00  0.00    +0.000 NA
ATOM      5  H   ARG B   1      -0.209 -11.136   2.492  0.00  0.00    +0.000 HD
ATOM      6  H   ARG B   1       1.401 -11.520   2.305  0.00  0.00    +0.000 HD
ENDBRANCH   3   4
BRANCH   3   7
ATOM      7  C   ARG B   1       1.929 -12.289   4.734  0.00  0.00    +0.000 C 
ATOM      8  O   ARG B   1       2.928 -11.750   4.254  0.00  0.00    +0.000 OA
BRANCH   7   9
ATOM      9  OXT ARG B   1       2.010 -12.926   5.787  0.00  0.00    +0.000 OA
ATOM     10  H   ARG B   1       1.248 -13.334   6.148  0.00  0.00    +0.000 HD
ENDBRANCH   7   9
ENDBRANCH   3   7
ENDBRANCH   2   3
ENDBRANCH   1   2
BRANCH   1  11
ATOM     11  CD  ARG B   1      -0.657 -14.841   1.483  0.00  0.00    +0.000 C 
BRANCH  11  12
ATOM     12  NE  ARG B   1      -2.104 -14.580   1.572  0.00  0.00    +0.000 NA
ATOM     13  CZ  ARG B   1      -3.021 -15.190   0.806  0.00  0.00    +0.000 C 
ATOM     14  NH1 ARG B   1      -2.662 -16.089  -0.102  0.00  0.00    +0.000 N 
ATOM     15  NH2 ARG B   1      -4.298 -14.880   0.959  0.00  0.00    +0.000 N 
ATOM     16  H   ARG B   1      -3.346 -16.529  -0.656  0.00  0.00    +0.000 HD
ATOM     17  H   ARG B   1      -1.711 -16.317  -0.220  0.00  0.00    +0.000 HD
ATOM     18  H   ARG B   1      -4.982 -15.320   0.404  0.00  0.00    +0.000 HD
ATOM     19  H   ARG B   1      -4.566 -14.209   1.628  0.00  0.00    +0.000 HD
ENDBRANCH  11  12
ENDBRANCH   1  11
TORSDOF 7
