REMARK  Name = /storage/kiran-stuff/aaRS/phase2/energy_scoring/vina_182jobs/anc_prors_cat_ARG_ARG/ligand.h.pdb
REMARK  7 active torsions:
REMARK  status: ('A' for Active; 'I' for Inactive)
REMARK    1  A    between atoms: N_1  and  CA_2
REMARK    2  A    between atoms: CA_2  and  C_3
REMARK    3  A    between atoms: CA_2  and  CB_5
REMARK    4  A    between atoms: C_3  and  OXT_12
REMARK    5  A    between atoms: CB_5  and  CG_6
REMARK    6  A    between atoms: CG_6  and  CD_7
REMARK    7  A    between atoms: CD_7  and  NE_8
REMARK                            x       y       z     vdW  Elec       q    Type
REMARK                         _______ _______ _______ _____ _____    ______ ____
ROOT
ATOM      1  CG  ARG B   1       0.632 -13.789   1.929  0.00  0.00    +0.000 C 
ENDROOT
BRANCH   1   2
ATOM      2  CB  ARG B   1       0.776 -13.612   3.420  0.00  0.00    +0.000 C 
BRANCH   2   3
ATOM      3  CA  ARG B   1       1.470 -12.293   3.823  0.00  0.00    +0.000 C 
BRANCH   3   4
ATOM      4  N   ARG B   1       2.095 -11.665   2.680  0.00  0.00    +0.000 NA
ATOM      5  H   ARG B   1       1.390 -11.480   1.966  0.00  0.00    +0.000 HD
ATOM      6  H   ARG B   1       2.810 -12.285   2.300  0.00  0.00    +0.000 HD
ENDBRANCH   3   4
BRANCH   3   7
ATOM      7  C   ARG B   1       2.536 -12.559   4.873  0.00  0.00    +0.000 C 
ATOM      8  O   ARG B   1       3.725 -12.632   4.557  0.00  0.00    +0.000 OA
BRANCH   7   9
ATOM      9  OXT ARG B   1       2.194 -12.705   6.049  0.00  0.00    +0.000 OA
ATOM     10  H   ARG B   1       1.289 -12.649   6.284  0.00  0.00    +0.000 HD
ENDBRANCH   7   9
ENDBRANCH   3   7
ENDBRANCH   2   3
ENDBRANCH   1   2
BRANCH   1  11
ATOM     11  CD  ARG B   1      -0.153 -15.044   1.572  0.00  0.00    +0.000 C 
BRANCH  11  12
ATOM     12  NE  ARG B   1      -1.571 -14.890   1.939  0.00  0.00    +0.000 NA
ATOM     13  CZ  ARG B   1      -2.586 -15.402   1.227  0.00  0.00    +0.000 C 
ATOM     14  NH1 ARG B   1      -2.359 -16.096   0.118  0.00  0.00    +0.000 N 
ATOM     15  NH2 ARG B   1      -3.828 -15.202   1.638  0.00  0.00    +0.000 N 
ATOM     16  H   ARG B   1      -3.114 -16.466  -0.394  0.00  0.00    +0.000 HD
ATOM     17  H   ARG B   1      -1.436 -16.241  -0.192  0.00  0.00    +0.000 HD
ATOM     18  H   ARG B   1      -4.582 -15.572   1.125  0.00  0.00    +0.000 HD
ATOM     19  H   ARG B   1      -3.998 -14.683   2.457  0.00  0.00    +0.000 HD
ENDBRANCH  11  12
ENDBRANCH   1  11
TORSDOF 7
