REMARK  Name = /storage/kiran-stuff/aaRS/phase2/energy_scoring/vina_182jobs/anc_prors_edit_ILE_ILE/ligand.h.pdb
REMARK  7 active torsions:
REMARK  status: ('A' for Active; 'I' for Inactive)
REMARK    1  A    between atoms: N_1  and  CA_2
REMARK    2  A    between atoms: CA_2  and  C_3
REMARK    3  A    between atoms: CA_2  and  CB_5
REMARK    4  A    between atoms: C_3  and  OXT_9
REMARK    5  A    between atoms: CB_5  and  CG1_6
REMARK    6  A    between atoms: CB_5  and  CG2_7
REMARK    7  A    between atoms: CG1_6  and  CD1_8
REMARK                            x       y       z     vdW  Elec       q    Type
REMARK                         _______ _______ _______ _____ _____    ______ ____
ROOT
ATOM      1  CA  ILE B   1      11.935 -14.814 -10.222  0.00  0.00    +0.000 C 
ENDROOT
BRANCH   1   2
ATOM      2  N   ILE B   1      11.164 -15.021  -9.000  0.00  0.00    +0.000 NA
ATOM      3  H   ILE B   1      10.305 -15.524  -9.222  0.00  0.00    +0.000 HD
ATOM      4  H   ILE B   1      10.932 -14.118  -8.587  0.00  0.00    +0.000 HD
ENDBRANCH   1   2
BRANCH   1   5
ATOM      5  C   ILE B   1      12.260 -16.111 -10.933  0.00  0.00    +0.000 C 
ATOM      6  O   ILE B   1      12.518 -16.063 -12.134  0.00  0.00    +0.000 OA
BRANCH   5   7
ATOM      7  OXT ILE B   1      12.238 -17.178 -10.324  0.00  0.00    +0.000 OA
ATOM      8  H   ILE B   1      12.039 -17.191  -9.409  0.00  0.00    +0.000 HD
ENDBRANCH   5   7
ENDBRANCH   1   5
BRANCH   1   9
ATOM      9  CB  ILE B   1      13.230 -14.058  -9.898  0.00  0.00    +0.000 C 
ATOM     10  CG2 ILE B   1      14.119 -14.859  -9.013  0.00  0.00    +0.000 C 
BRANCH   9  11
ATOM     11  CG1 ILE B   1      12.890 -12.707  -9.314  0.00  0.00    +0.000 C 
ATOM     12  CD1 ILE B   1      14.095 -11.929  -8.947  0.00  0.00    +0.000 C 
ENDBRANCH   9  11
ENDBRANCH   1   9
TORSDOF 5
