REMARK  Name = /storage/kiran-stuff/aaRS/phase2/energy_scoring/vina_182jobs/anc_prors_edit_ILE_ILE/ligand.h.pdb
REMARK  7 active torsions:
REMARK  status: ('A' for Active; 'I' for Inactive)
REMARK    1  A    between atoms: N_1  and  CA_2
REMARK    2  A    between atoms: CA_2  and  C_3
REMARK    3  A    between atoms: CA_2  and  CB_5
REMARK    4  A    between atoms: C_3  and  OXT_9
REMARK    5  A    between atoms: CB_5  and  CG1_6
REMARK    6  A    between atoms: CB_5  and  CG2_7
REMARK    7  A    between atoms: CG1_6  and  CD1_8
REMARK                            x       y       z     vdW  Elec       q    Type
REMARK                         _______ _______ _______ _____ _____    ______ ____
ROOT
ATOM      1  CA  ILE B   1      12.123 -14.447 -10.408  0.00  0.00    +0.000 C 
ENDROOT
BRANCH   1   2
ATOM      2  N   ILE B   1      11.006 -14.316  -9.478  0.00  0.00    +0.000 NA
ATOM      3  H   ILE B   1      10.140 -14.581  -9.947  0.00  0.00    +0.000 HD
ATOM      4  H   ILE B   1      10.939 -13.349  -9.161  0.00  0.00    +0.000 HD
ENDBRANCH   1   2
BRANCH   1   5
ATOM      5  C   ILE B   1      12.246 -15.845 -10.978  0.00  0.00    +0.000 C 
ATOM      6  O   ILE B   1      13.082 -16.039 -11.858  0.00  0.00    +0.000 OA
BRANCH   5   7
ATOM      7  OXT ILE B   1      11.510 -16.746 -10.583  0.00  0.00    +0.000 OA
ATOM      8  H   ILE B   1      10.880 -16.575  -9.911  0.00  0.00    +0.000 HD
ENDBRANCH   5   7
ENDBRANCH   1   5
BRANCH   1   9
ATOM      9  CB  ILE B   1      13.430 -14.050  -9.710  0.00  0.00    +0.000 C 
ATOM     10  CG2 ILE B   1      13.606 -14.787  -8.428  0.00  0.00    +0.000 C 
BRANCH   9  11
ATOM     11  CG1 ILE B   1      13.469 -12.551  -9.531  0.00  0.00    +0.000 C 
ATOM     12  CD1 ILE B   1      14.799 -12.067  -9.094  0.00  0.00    +0.000 C 
ENDBRANCH   9  11
ENDBRANCH   1   9
TORSDOF 5
