REMARK  Name = /storage/kiran-stuff/aaRS/phase2/energy_scoring/vina_182jobs/modern_prors_ILE_ILE/ligand.h.pdb
REMARK  7 active torsions:
REMARK  status: ('A' for Active; 'I' for Inactive)
REMARK    1  A    between atoms: N_1  and  CA_2
REMARK    2  A    between atoms: CA_2  and  C_3
REMARK    3  A    between atoms: CA_2  and  CB_5
REMARK    4  A    between atoms: C_3  and  OXT_9
REMARK    5  A    between atoms: CB_5  and  CG1_6
REMARK    6  A    between atoms: CB_5  and  CG2_7
REMARK    7  A    between atoms: CG1_6  and  CD1_8
REMARK                            x       y       z     vdW  Elec       q    Type
REMARK                         _______ _______ _______ _____ _____    ______ ____
ROOT
ATOM      1  CA  ILE B   1      -1.260  -2.590  -9.100  0.00  0.00    +0.000 C 
ENDROOT
BRANCH   1   2
ATOM      2  N   ILE B   1      -1.249  -2.954 -10.531  0.00  0.00    +0.000 NA
ATOM      3  H   ILE B   1      -1.222  -2.106 -11.097  0.00  0.00    +0.000 HD
ATOM      4  H   ILE B   1      -2.091  -3.485 -10.753  0.00  0.00    +0.000 HD
ENDBRANCH   1   2
BRANCH   1   5
ATOM      5  C   ILE B   1      -0.051  -1.723  -8.770  0.00  0.00    +0.000 C 
ATOM      6  O   ILE B   1       0.602  -1.194  -9.668  0.00  0.00    +0.000 OA
BRANCH   5   7
ATOM      7  OXT ILE B   1       0.253  -1.552  -7.578  0.00  0.00    +0.000 OA
ATOM      8  H   ILE B   1      -0.252  -1.960  -6.903  0.00  0.00    +0.000 HD
ENDBRANCH   5   7
ENDBRANCH   1   5
BRANCH   1   9
ATOM      9  CB  ILE B   1      -1.300  -3.843  -8.206  0.00  0.00    +0.000 C 
ATOM     10  CG2 ILE B   1      -2.704  -4.043  -7.725  0.00  0.00    +0.000 C 
BRANCH   9  11
ATOM     11  CG1 ILE B   1      -0.765  -5.064  -8.902  0.00  0.00    +0.000 C 
ATOM     12  CD1 ILE B   1      -1.509  -6.299  -8.582  0.00  0.00    +0.000 C 
ENDBRANCH   9  11
ENDBRANCH   1   9
TORSDOF 5
