REMARK  Name = /storage/kiran-stuff/aaRS/phase2/energy_scoring/vina_182jobs/modern_prors_LEU_LEU/ligand.h.pdb
REMARK  7 active torsions:
REMARK  status: ('A' for Active; 'I' for Inactive)
REMARK    1  A    between atoms: N_1  and  CA_2
REMARK    2  A    between atoms: CA_2  and  C_3
REMARK    3  A    between atoms: CA_2  and  CB_5
REMARK    4  A    between atoms: C_3  and  OXT_9
REMARK    5  A    between atoms: CB_5  and  CG_6
REMARK    6  A    between atoms: CG_6  and  CD1_7
REMARK    7  A    between atoms: CG_6  and  CD2_8
REMARK                            x       y       z     vdW  Elec       q    Type
REMARK                         _______ _______ _______ _____ _____    ______ ____
ROOT
ATOM      1  CA  LEU B   1      -0.701  -2.284  -8.996  0.00  0.00    +0.000 C 
ENDROOT
BRANCH   1   2
ATOM      2  N   LEU B   1      -0.213  -1.984 -10.344  0.00  0.00    +0.000 NA
ATOM      3  H   LEU B   1      -0.409  -1.008 -10.567  0.00  0.00    +0.000 HD
ATOM      4  H   LEU B   1      -0.682  -2.589 -11.018  0.00  0.00    +0.000 HD
ENDBRANCH   1   2
BRANCH   1   5
ATOM      5  C   LEU B   1      -0.044  -1.375  -7.969  0.00  0.00    +0.000 C 
ATOM      6  O   LEU B   1       0.115  -0.169  -8.217  0.00  0.00    +0.000 OA
BRANCH   5   7
ATOM      7  OXT LEU B   1       0.336  -1.849  -6.884  0.00  0.00    +0.000 OA
ATOM      8  H   LEU B   1       0.213  -2.760  -6.702  0.00  0.00    +0.000 HD
ENDBRANCH   5   7
ENDBRANCH   1   5
BRANCH   1   9
ATOM      9  CB  LEU B   1      -0.414  -3.730  -8.657  0.00  0.00    +0.000 C 
BRANCH   9  10
ATOM     10  CG  LEU B   1      -1.632  -4.623  -8.830  0.00  0.00    +0.000 C 
ATOM     11  CD1 LEU B   1      -2.721  -4.209  -7.854  0.00  0.00    +0.000 C 
ATOM     12  CD2 LEU B   1      -1.239  -6.084  -8.621  0.00  0.00    +0.000 C 
ENDBRANCH   9  10
ENDBRANCH   1   9
TORSDOF 5
