REMARK  Name = /storage/kiran-stuff/aaRS/phase2/energy_scoring/vina_182jobs/modern_ecoli_cat_trp_TRP/ligand.h.pdb
REMARK  5 active torsions:
REMARK  status: ('A' for Active; 'I' for Inactive)
REMARK    1  A    between atoms: N_1  and  CA_2
REMARK    2  A    between atoms: CA_2  and  C_3
REMARK    3  A    between atoms: CA_2  and  CB_5
REMARK    4  A    between atoms: C_3  and  OXT_15
REMARK    5  A    between atoms: CB_5  and  CG_6
REMARK                            x       y       z     vdW  Elec       q    Type
REMARK                         _______ _______ _______ _____ _____    ______ ____
ROOT
ATOM      1  CB  TRP B   1      -3.650  -1.263  -8.637  0.00  0.00    +0.000 C 
ENDROOT
BRANCH   1   2
ATOM      2  CG  TRP B   1      -2.919  -1.183  -9.919  0.00  0.00    +0.000 C 
ATOM      3  CD1 TRP B   1      -1.686  -1.681 -10.207  0.00  0.00    +0.000 C 
ATOM      4  CD2 TRP B   1      -3.380  -0.602 -11.148  0.00  0.00    +0.000 A 
ATOM      5  NE1 TRP B   1      -1.353  -1.443 -11.488  0.00  0.00    +0.000 NA
ATOM      6  CE2 TRP B   1      -2.364  -0.794 -12.097  0.00  0.00    +0.000 A 
ATOM      7  CE3 TRP B   1      -4.549   0.042 -11.520  0.00  0.00    +0.000 A 
ATOM      8  CZ2 TRP B   1      -2.509  -0.352 -13.417  0.00  0.00    +0.000 A 
ATOM      9  CZ3 TRP B   1      -4.693   0.482 -12.822  0.00  0.00    +0.000 A 
ATOM     10  CH2 TRP B   1      -3.681   0.288 -13.758  0.00  0.00    +0.000 A 
ENDBRANCH   1   2
BRANCH   1  11
ATOM     11  CA  TRP B   1      -4.544  -2.547  -8.561  0.00  0.00    +0.000 C 
BRANCH  11  12
ATOM     12  N   TRP B   1      -5.951  -2.138  -8.539  0.00  0.00    +0.000 NA
ATOM     13  H   TRP B   1      -6.155  -1.580  -9.368  0.00  0.00    +0.000 HD
ATOM     14  H   TRP B   1      -6.130  -1.582  -7.703  0.00  0.00    +0.000 HD
ENDBRANCH  11  12
BRANCH  11  15
ATOM     15  C   TRP B   1      -4.238  -3.364  -7.352  0.00  0.00    +0.000 C 
ATOM     16  O   TRP B   1      -4.948  -3.260  -6.344  0.00  0.00    +0.000 OA
BRANCH  15  17
ATOM     17  OXT TRP B   1      -3.253  -4.117  -7.391  0.00  0.00    +0.000 OA
ATOM     18  H   TRP B   1      -2.736  -4.173  -8.170  0.00  0.00    +0.000 HD
ENDBRANCH  15  17
ENDBRANCH  11  15
ENDBRANCH   1  11
TORSDOF 5
