REMARK  Name = /storage/kiran-stuff/aaRS/phase2/energy_scoring/vina_182jobs/modern_ecoli_cat_trp_TRP/ligand.h.pdb
REMARK  5 active torsions:
REMARK  status: ('A' for Active; 'I' for Inactive)
REMARK    1  A    between atoms: N_1  and  CA_2
REMARK    2  A    between atoms: CA_2  and  C_3
REMARK    3  A    between atoms: CA_2  and  CB_5
REMARK    4  A    between atoms: C_3  and  OXT_15
REMARK    5  A    between atoms: CB_5  and  CG_6
REMARK                            x       y       z     vdW  Elec       q    Type
REMARK                         _______ _______ _______ _____ _____    ______ ____
ROOT
ATOM      1  CB  TRP B   1      -3.978  -1.311  -9.103  0.00  0.00    +0.000 C 
ENDROOT
BRANCH   1   2
ATOM      2  CG  TRP B   1      -3.057  -1.247 -10.257  0.00  0.00    +0.000 C 
ATOM      3  CD1 TRP B   1      -1.802  -1.766 -10.351  0.00  0.00    +0.000 C 
ATOM      4  CD2 TRP B   1      -3.313  -0.663 -11.543  0.00  0.00    +0.000 A 
ATOM      5  NE1 TRP B   1      -1.272  -1.538 -11.565  0.00  0.00    +0.000 NA
ATOM      6  CE2 TRP B   1      -2.166  -0.875 -12.324  0.00  0.00    +0.000 A 
ATOM      7  CE3 TRP B   1      -4.400  -0.002 -12.092  0.00  0.00    +0.000 A 
ATOM      8  CZ2 TRP B   1      -2.098  -0.435 -13.651  0.00  0.00    +0.000 A 
ATOM      9  CZ3 TRP B   1      -4.334   0.435 -13.401  0.00  0.00    +0.000 A 
ATOM     10  CH2 TRP B   1      -3.193   0.222 -14.170  0.00  0.00    +0.000 A 
ENDBRANCH   1   2
BRANCH   1  11
ATOM     11  CA  TRP B   1      -5.137  -2.336  -9.346  0.00  0.00    +0.000 C 
BRANCH  11  12
ATOM     12  N   TRP B   1      -6.112  -1.733 -10.259  0.00  0.00    +0.000 NA
ATOM     13  H   TRP B   1      -5.647  -1.471 -11.128  0.00  0.00    +0.000 HD
ATOM     14  H   TRP B   1      -6.515  -0.902  -9.826  0.00  0.00    +0.000 HD
ENDBRANCH  11  12
BRANCH  11  15
ATOM     15  C   TRP B   1      -5.810  -2.721  -8.073  0.00  0.00    +0.000 C 
ATOM     16  O   TRP B   1      -6.872  -2.175  -7.749  0.00  0.00    +0.000 OA
BRANCH  15  17
ATOM     17  OXT TRP B   1      -5.264  -3.576  -7.359  0.00  0.00    +0.000 OA
ATOM     18  H   TRP B   1      -4.460  -3.971  -7.633  0.00  0.00    +0.000 HD
ENDBRANCH  15  17
ENDBRANCH  11  15
ENDBRANCH   1  11
TORSDOF 5
