REMARK  Name = /storage/kiran-stuff/aaRS/phase2/energy_scoring/vina_182jobs/proRS_editing_Thr_THR/ligand.h.pdb
REMARK  6 active torsions:
REMARK  status: ('A' for Active; 'I' for Inactive)
REMARK    1  A    between atoms: N_1  and  CA_2
REMARK    2  A    between atoms: CA_2  and  C_3
REMARK    3  A    between atoms: CA_2  and  CB_5
REMARK    4  A    between atoms: C_3  and  OXT_8
REMARK    5  A    between atoms: CB_5  and  OG1_6
REMARK    6  A    between atoms: CB_5  and  CG2_7
REMARK                            x       y       z     vdW  Elec       q    Type
REMARK                         _______ _______ _______ _____ _____    ______ ____
ROOT
ATOM      1  CA  THR L   1     -32.241  25.517 -29.302  0.00  0.00    +0.000 C 
ENDROOT
BRANCH   1   2
ATOM      2  N   THR L   1     -31.489  24.272 -29.155  0.00  0.00    +0.000 NA
ATOM      3  H   THR L   1     -31.949  23.676 -28.467  0.00  0.00    +0.000 HD
ATOM      4  H   THR L   1     -30.541  24.482 -28.843  0.00  0.00    +0.000 HD
ENDBRANCH   1   2
BRANCH   1   5
ATOM      5  C   THR L   1     -31.561  26.424 -30.335  0.00  0.00    +0.000 C 
ATOM      6  O   THR L   1     -30.952  27.443 -30.028  0.00  0.00    +0.000 OA
BRANCH   5   7
ATOM      7  OXT THR L   1     -31.621  26.091 -31.506  0.00  0.00    +0.000 OA
ATOM      8  H   THR L   1     -32.084  25.314 -31.749  0.00  0.00    +0.000 HD
ENDBRANCH   5   7
ENDBRANCH   1   5
BRANCH   1   9
ATOM      9  CB  THR L   1     -32.375  26.186 -27.955  0.00  0.00    +0.000 C 
ATOM     10  CG2 THR L   1     -31.628  25.511 -26.872  0.00  0.00    +0.000 C 
BRANCH   9  11
ATOM     11  OG1 THR L   1     -33.764  26.276 -27.620  0.00  0.00    +0.000 OA
ATOM     12  H   THR L   1     -34.138  25.384 -27.547  0.00  0.00    +0.000 HD
ENDBRANCH   9  11
ENDBRANCH   1   9
TORSDOF 5
