REMARK  Name = /storage/kiran-stuff/aaRS/phase2/energy_scoring/vina_182jobs/proRS_editing_Thr_THR/ligand.h.pdb
REMARK  6 active torsions:
REMARK  status: ('A' for Active; 'I' for Inactive)
REMARK    1  A    between atoms: N_1  and  CA_2
REMARK    2  A    between atoms: CA_2  and  C_3
REMARK    3  A    between atoms: CA_2  and  CB_5
REMARK    4  A    between atoms: C_3  and  OXT_8
REMARK    5  A    between atoms: CB_5  and  OG1_6
REMARK    6  A    between atoms: CB_5  and  CG2_7
REMARK                            x       y       z     vdW  Elec       q    Type
REMARK                         _______ _______ _______ _____ _____    ______ ____
ROOT
ATOM      1  CA  THR L   1     -33.047  23.417 -29.739  0.00  0.00    +0.000 C 
ENDROOT
BRANCH   1   2
ATOM      2  N   THR L   1     -32.910  24.740 -29.132  0.00  0.00    +0.000 NA
ATOM      3  H   THR L   1     -33.831  25.088 -28.864  0.00  0.00    +0.000 HD
ATOM      4  H   THR L   1     -32.487  25.380 -29.804  0.00  0.00    +0.000 HD
ENDBRANCH   1   2
BRANCH   1   5
ATOM      5  C   THR L   1     -31.669  22.880 -30.148  0.00  0.00    +0.000 C 
ATOM      6  O   THR L   1     -31.503  22.134 -31.106  0.00  0.00    +0.000 OA
BRANCH   5   7
ATOM      7  OXT THR L   1     -30.706  23.238 -29.492  0.00  0.00    +0.000 OA
ATOM      8  H   THR L   1     -30.825  23.808 -28.758  0.00  0.00    +0.000 HD
ENDBRANCH   5   7
ENDBRANCH   1   5
BRANCH   1   9
ATOM      9  CB  THR L   1     -33.998  23.496 -30.909  0.00  0.00    +0.000 C 
ATOM     10  CG2 THR L   1     -34.181  22.214 -31.622  0.00  0.00    +0.000 C 
BRANCH   9  11
ATOM     11  OG1 THR L   1     -33.535  24.506 -31.813  0.00  0.00    +0.000 OA
ATOM     12  H   THR L   1     -32.662  24.258 -32.155  0.00  0.00    +0.000 HD
ENDBRANCH   9  11
ENDBRANCH   1   9
TORSDOF 5
