REMARK  Name = /storage/kiran-stuff/aaRS/phase2/energy_scoring/vina_182jobs/proRS_editing_Thr_THR/ligand.h.pdb
REMARK  620 active torsions:
REMARK  status: ('A' for Active; 'I' for Inactive)
REMARK    1  A    between atoms: P_2  and  O5'_5
REMARK    2  A    between atoms: O5'_5  and  C5'_6
REMARK    3  A    between atoms: C5'_6  and  C4'_7
REMARK    4  A    between atoms: C3'_9  and  O3'_10
REMARK    5  A    between atoms: O3'_10  and  P_22
REMARK    6  A    between atoms: C2'_11  and  O2'_12
REMARK    7  A    between atoms: C1'_13  and  N1_14
REMARK    8  A    between atoms: P_22  and  OP2_24
REMARK    9  A    between atoms: P_22  and  O5'_25
REMARK   10  A    between atoms: O5'_25  and  C5'_26
REMARK   11  A    between atoms: C5'_26  and  C4'_27
REMARK   12  A    between atoms: C3'_29  and  O3'_30
REMARK   13  A    between atoms: O3'_30  and  P_42
REMARK   14  A    between atoms: C2'_31  and  O2'_32
REMARK   15  A    between atoms: C1'_33  and  N1_34
REMARK   16  A    between atoms: P_42  and  OP2_44
REMARK   17  A    between atoms: P_42  and  O5'_45
REMARK   18  A    between atoms: O5'_45  and  C5'_46
REMARK   19  A    between atoms: C5'_46  and  C4'_47
REMARK   20  A    between atoms: C3'_49  and  O3'_50
REMARK   21  A    between atoms: O3'_50  and  P_64
REMARK   22  A    between atoms: C2'_51  and  O2'_52
REMARK   23  A    between atoms: C1'_53  and  N9_54
REMARK   24  A    between atoms: P_64  and  OP2_66
REMARK   25  A    between atoms: P_64  and  O5'_67
REMARK   26  A    between atoms: O5'_67  and  C5'_68
REMARK   27  A    between atoms: C5'_68  and  C4'_69
REMARK   28  A    between atoms: C3'_71  and  O3'_72
REMARK   29  A    between atoms: O3'_72  and  P_86
REMARK   30  A    between atoms: C2'_73  and  O2'_74
REMARK   31  A    between atoms: C1'_75  and  N9_76
REMARK   32  A    between atoms: P_86  and  OP2_88
REMARK   33  A    between atoms: P_86  and  O5'_89
REMARK   34  A    between atoms: O5'_89  and  C5'_90
REMARK   35  A    between atoms: C5'_90  and  C4'_91
REMARK   36  A    between atoms: C3'_93  and  O3'_94
REMARK   37  A    between atoms: O3'_94  and  P_106
REMARK   38  A    between atoms: C2'_95  and  O2'_96
REMARK   39  A    between atoms: C1'_97  and  N1_98
REMARK   40  A    between atoms: P_106  and  OP2_108
REMARK   41  A    between atoms: P_106  and  O5'_109
REMARK   42  A    between atoms: O5'_109  and  C5'_110
REMARK   43  A    between atoms: C5'_110  and  C4'_111
REMARK   44  A    between atoms: C3'_113  and  O3'_114
REMARK   45  A    between atoms: O3'_114  and  P_128
REMARK   46  A    between atoms: C2'_115  and  O2'_116
REMARK   47  A    between atoms: C1'_117  and  N9_118
REMARK   48  A    between atoms: P_128  and  OP2_130
REMARK   49  A    between atoms: P_128  and  O5'_131
REMARK   50  A    between atoms: O5'_131  and  C5'_132
REMARK   51  A    between atoms: C5'_132  and  C4'_133
REMARK   52  A    between atoms: C3'_135  and  O3'_136
REMARK   53  A    between atoms: O3'_136  and  P_148
REMARK   54  A    between atoms: C2'_137  and  O2'_138
REMARK   55  A    between atoms: C1'_139  and  N1_140
REMARK   56  A    between atoms: P_148  and  OP2_150
REMARK   57  A    between atoms: P_148  and  O5'_151
REMARK   58  A    between atoms: O5'_151  and  C5'_152
REMARK   59  A    between atoms: C5'_152  and  C4'_153
REMARK   60  A    between atoms: C3'_155  and  O3'_156
REMARK   61  A    between atoms: O3'_156  and  P_168
REMARK   62  A    between atoms: C2'_157  and  O2'_158
REMARK   63  A    between atoms: C1'_159  and  N1_160
REMARK   64  A    between atoms: P_168  and  OP2_170
REMARK   65  A    between atoms: P_168  and  O5'_171
REMARK   66  A    between atoms: O5'_171  and  C5'_172
REMARK   67  A    between atoms: C5'_172  and  C4'_173
REMARK   68  A    between atoms: C3'_175  and  O3'_176
REMARK   69  A    between atoms: O3'_176  and  P_190
REMARK   70  A    between atoms: C2'_177  and  O2'_178
REMARK   71  A    between atoms: C1'_179  and  N9_180
REMARK   72  A    between atoms: P_190  and  OP2_192
REMARK   73  A    between atoms: P_190  and  O5'_193
REMARK   74  A    between atoms: O5'_193  and  C5'_194
REMARK   75  A    between atoms: C5'_194  and  C4'_195
REMARK   76  A    between atoms: C3'_197  and  O3'_198
REMARK   77  A    between atoms: O3'_198  and  P_210
REMARK   78  A    between atoms: C2'_199  and  O2'_200
REMARK   79  A    between atoms: C1'_201  and  N1_202
REMARK   80  A    between atoms: P_210  and  OP2_212
REMARK   81  A    between atoms: P_210  and  O5'_213
REMARK   82  A    between atoms: O5'_213  and  C5'_214
REMARK   83  A    between atoms: C5'_214  and  C4'_215
REMARK   84  A    between atoms: C3'_217  and  O3'_218
REMARK   85  A    between atoms: O3'_218  and  P_230
REMARK   86  A    between atoms: C2'_219  and  O2'_220
REMARK   87  A    between atoms: C1'_221  and  N1_222
REMARK   88  A    between atoms: P_230  and  OP2_232
REMARK   89  A    between atoms: P_230  and  O5'_233
REMARK   90  A    between atoms: O5'_233  and  C5'_234
REMARK   91  A    between atoms: C5'_234  and  C4'_235
REMARK   92  A    between atoms: C3'_237  and  O3'_238
REMARK   93  A    between atoms: O3'_238  and  P_250
REMARK   94  A    between atoms: C2'_239  and  O2'_240
REMARK   95  A    between atoms: C1'_241  and  N1_242
REMARK   96  A    between atoms: P_250  and  OP2_252
REMARK   97  A    between atoms: P_250  and  O5'_253
REMARK   98  A    between atoms: O5'_253  and  C5'_254
REMARK   99  A    between atoms: C5'_254  and  C4'_255
REMARK  100  A    between atoms: C3'_257  and  O3'_258
REMARK  101  A    between atoms: O3'_258  and  P_270
REMARK  102  A    between atoms: C2'_259  and  O2'_260
REMARK  103  A    between atoms: C1'_261  and  N1_262
REMARK  104  A    between atoms: P_270  and  OP2_272
REMARK  105  A    between atoms: P_270  and  O5'_273
REMARK  106  A    between atoms: O5'_273  and  C5'_274
REMARK  107  A    between atoms: C5'_274  and  C4'_275
REMARK  108  A    between atoms: C3'_277  and  O3'_278
REMARK  109  A    between atoms: O3'_278  and  P_292
REMARK  110  A    between atoms: C2'_279  and  O2'_280
REMARK  111  A    between atoms: C1'_281  and  N9_282
REMARK  112  A    between atoms: P_292  and  OP2_294
REMARK  113  A    between atoms: P_292  and  O5'_295
REMARK  114  A    between atoms: O5'_295  and  C5'_296
REMARK  115  A    between atoms: C5'_296  and  C4'_297
REMARK  116  A    between atoms: C3'_299  and  O3'_300
REMARK  117  A    between atoms: O3'_300  and  P_312
REMARK  118  A    between atoms: C2'_301  and  O2'_302
REMARK  119  A    between atoms: C1'_303  and  N1_304
REMARK  120  A    between atoms: P_312  and  OP2_314
REMARK  121  A    between atoms: P_312  and  O5'_315
REMARK  122  A    between atoms: O5'_315  and  C5'_316
REMARK  123  A    between atoms: C5'_316  and  C4'_317
REMARK  124  A    between atoms: C3'_319  and  O3'_320
REMARK  125  A    between atoms: O3'_320  and  P_332
REMARK  126  A    between atoms: C2'_321  and  O2'_322
REMARK  127  A    between atoms: C1'_323  and  N1_324
REMARK  128  A    between atoms: P_332  and  OP1_333
REMARK  129  A    between atoms: P_332  and  O5'_335
REMARK  130  A    between atoms: O5'_335  and  C5'_336
REMARK  131  A    between atoms: C5'_336  and  C4'_337
REMARK  132  A    between atoms: C3'_339  and  O3'_340
REMARK  133  A    between atoms: O3'_340  and  P_352
REMARK  134  A    between atoms: C2'_341  and  O2'_342
REMARK  135  A    between atoms: C1'_343  and  N1_344
REMARK  136  A    between atoms: P_352  and  OP2_354
REMARK  137  A    between atoms: P_352  and  O5'_355
REMARK  138  A    between atoms: O5'_355  and  C5'_356
REMARK  139  A    between atoms: C5'_356  and  C4'_357
REMARK  140  A    between atoms: C3'_359  and  O3'_360
REMARK  141  A    between atoms: O3'_360  and  P_375
REMARK  142  A    between atoms: C2'_361  and  O2'_362
REMARK  143  A    between atoms: C1'_363  and  N9_364
REMARK  144  A    between atoms: P_375  and  OP2_377
REMARK  145  A    between atoms: P_375  and  O5'_378
REMARK  146  A    between atoms: O5'_378  and  C5'_379
REMARK  147  A    between atoms: C5'_379  and  C4'_380
REMARK  148  A    between atoms: C3'_382  and  O3'_383
REMARK  149  A    between atoms: O3'_383  and  P_397
REMARK  150  A    between atoms: C2'_384  and  O2'_385
REMARK  151  A    between atoms: C1'_386  and  N9_387
REMARK  152  A    between atoms: P_397  and  OP2_399
REMARK  153  A    between atoms: P_397  and  O5'_400
REMARK  154  A    between atoms: O5'_400  and  C5'_401
REMARK  155  A    between atoms: C5'_401  and  C4'_402
REMARK  156  A    between atoms: C3'_404  and  O3'_405
REMARK  157  A    between atoms: O3'_405  and  P_419
REMARK  158  A    between atoms: C2'_406  and  O2'_407
REMARK  159  A    between atoms: C1'_408  and  N9_409
REMARK  160  A    between atoms: P_419  and  OP2_421
REMARK  161  A    between atoms: P_419  and  O5'_422
REMARK  162  A    between atoms: O5'_422  and  C5'_423
REMARK  163  A    between atoms: C5'_423  and  C4'_424
REMARK  164  A    between atoms: C3'_426  and  O3'_427
REMARK  165  A    between atoms: O3'_427  and  P_441
REMARK  166  A    between atoms: C2'_428  and  O2'_429
REMARK  167  A    between atoms: C1'_430  and  N9_431
REMARK  168  A    between atoms: P_441  and  OP2_443
REMARK  169  A    between atoms: P_441  and  O5'_444
REMARK  170  A    between atoms: O5'_444  and  C5'_445
REMARK  171  A    between atoms: C5'_445  and  C4'_446
REMARK  172  A    between atoms: C3'_448  and  O3'_449
REMARK  173  A    between atoms: O3'_449  and  P_461
REMARK  174  A    between atoms: C2'_450  and  O2'_451
REMARK  175  A    between atoms: C1'_452  and  N1_453
REMARK  176  A    between atoms: P_461  and  OP2_463
REMARK  177  A    between atoms: P_461  and  O5'_464
REMARK  178  A    between atoms: O5'_464  and  C5'_465
REMARK  179  A    between atoms: C5'_465  and  C4'_466
REMARK  180  A    between atoms: C3'_468  and  O3'_469
REMARK  181  A    between atoms: O3'_469  and  P_481
REMARK  182  A    between atoms: C2'_470  and  O2'_471
REMARK  183  A    between atoms: C1'_472  and  N1_473
REMARK  184  A    between atoms: P_481  and  OP1_482
REMARK  185  A    between atoms: P_481  and  O5'_484
REMARK  186  A    between atoms: O5'_484  and  C5'_485
REMARK  187  A    between atoms: C5'_485  and  C4'_486
REMARK  188  A    between atoms: C3'_488  and  O3'_489
REMARK  189  A    between atoms: O3'_489  and  P_501
REMARK  190  A    between atoms: C2'_490  and  O2'_491
REMARK  191  A    between atoms: C1'_492  and  N1_493
REMARK  192  A    between atoms: P_501  and  OP1_502
REMARK  193  A    between atoms: P_501  and  O5'_504
REMARK  194  A    between atoms: O5'_504  and  C5'_505
REMARK  195  A    between atoms: C5'_505  and  C4'_506
REMARK  196  A    between atoms: C3'_508  and  O3'_509
REMARK  197  A    between atoms: O3'_509  and  P_521
REMARK  198  A    between atoms: C2'_510  and  O2'_511
REMARK  199  A    between atoms: C1'_512  and  N1_513
REMARK  200  A    between atoms: P_521  and  OP1_522
REMARK  201  A    between atoms: P_521  and  O5'_524
REMARK  202  A    between atoms: O5'_524  and  C5'_525
REMARK  203  A    between atoms: C5'_525  and  C4'_526
REMARK  204  A    between atoms: C3'_528  and  O3'_529
REMARK  205  A    between atoms: O3'_529  and  P_541
REMARK  206  A    between atoms: C2'_530  and  O2'_531
REMARK  207  A    between atoms: C1'_532  and  N1_533
REMARK  208  A    between atoms: P_541  and  OP2_543
REMARK  209  A    between atoms: P_541  and  O5'_544
REMARK  210  A    between atoms: O5'_544  and  C5'_545
REMARK  211  A    between atoms: C5'_545  and  C4'_546
REMARK  212  A    between atoms: C3'_548  and  O3'_549
REMARK  213  A    between atoms: O3'_549  and  P_561
REMARK  214  A    between atoms: C2'_550  and  O2'_551
REMARK  215  A    between atoms: C1'_552  and  N1_553
REMARK  216  A    between atoms: P_561  and  OP2_563
REMARK  217  A    between atoms: P_561  and  O5'_564
REMARK  218  A    between atoms: O5'_564  and  C5'_565
REMARK  219  A    between atoms: C5'_565  and  C4'_566
REMARK  220  A    between atoms: C3'_568  and  O3'_569
REMARK  221  A    between atoms: O3'_569  and  P_581
REMARK  222  A    between atoms: C2'_570  and  O2'_571
REMARK  223  A    between atoms: C1'_572  and  N1_573
REMARK  224  A    between atoms: P_581  and  OP2_583
REMARK  225  A    between atoms: P_581  and  O5'_584
REMARK  226  A    between atoms: O5'_584  and  C5'_585
REMARK  227  A    between atoms: C5'_585  and  C4'_586
REMARK  228  A    between atoms: C3'_588  and  O3'_589
REMARK  229  A    between atoms: O3'_589  and  P_603
REMARK  230  A    between atoms: C2'_590  and  O2'_591
REMARK  231  A    between atoms: C1'_592  and  N9_593
REMARK  232  A    between atoms: P_603  and  OP2_605
REMARK  233  A    between atoms: P_603  and  O5'_606
REMARK  234  A    between atoms: O5'_606  and  C5'_607
REMARK  235  A    between atoms: C5'_607  and  C4'_608
REMARK  236  A    between atoms: C3'_610  and  O3'_611
REMARK  237  A    between atoms: O3'_611  and  P_625
REMARK  238  A    between atoms: C2'_612  and  O2'_613
REMARK  239  A    between atoms: C1'_614  and  N9_615
REMARK  240  A    between atoms: P_625  and  OP2_627
REMARK  241  A    between atoms: P_625  and  O5'_628
REMARK  242  A    between atoms: O5'_628  and  C5'_629
REMARK  243  A    between atoms: C5'_629  and  C4'_630
REMARK  244  A    between atoms: C3'_632  and  O3'_633
REMARK  245  A    between atoms: O3'_633  and  P_647
REMARK  246  A    between atoms: C2'_634  and  O2'_635
REMARK  247  A    between atoms: C1'_636  and  N9_637
REMARK  248  A    between atoms: P_647  and  OP2_649
REMARK  249  A    between atoms: P_647  and  O5'_650
REMARK  250  A    between atoms: O5'_650  and  C5'_651
REMARK  251  A    between atoms: C5'_651  and  C4'_652
REMARK  252  A    between atoms: C3'_654  and  O3'_655
REMARK  253  A    between atoms: O3'_655  and  P_669
REMARK  254  A    between atoms: C2'_656  and  O2'_657
REMARK  255  A    between atoms: C1'_658  and  N9_659
REMARK  256  A    between atoms: P_669  and  OP2_671
REMARK  257  A    between atoms: P_669  and  O5'_672
REMARK  258  A    between atoms: O5'_672  and  C5'_673
REMARK  259  A    between atoms: C5'_673  and  C4'_674
REMARK  260  A    between atoms: C3'_676  and  O3'_677
REMARK  261  A    between atoms: O3'_677  and  P_689
REMARK  262  A    between atoms: C2'_678  and  O2'_679
REMARK  263  A    between atoms: C1'_680  and  N1_681
REMARK  264  A    between atoms: P_689  and  OP2_691
REMARK  265  A    between atoms: P_689  and  O5'_692
REMARK  266  A    between atoms: O5'_692  and  C5'_693
REMARK  267  A    between atoms: C5'_693  and  C4'_694
REMARK  268  A    between atoms: C3'_696  and  O3'_697
REMARK  269  A    between atoms: O3'_697  and  P_711
REMARK  270  A    between atoms: C2'_698  and  O2'_699
REMARK  271  A    between atoms: C1'_700  and  N9_701
REMARK  272  A    between atoms: C6_705  and  N6_706
REMARK  273  A    between atoms: P_711  and  OP1_712
REMARK  274  A    between atoms: P_711  and  O5'_714
REMARK  275  A    between atoms: O5'_714  and  C5'_715
REMARK  276  A    between atoms: C5'_715  and  C4'_716
REMARK  277  A    between atoms: C3'_718  and  O3'_719
REMARK  278  A    between atoms: O3'_719  and  P_733
REMARK  279  A    between atoms: C2'_720  and  O2'_721
REMARK  280  A    between atoms: C1'_722  and  N9_723
REMARK  281  A    between atoms: C6_727  and  N6_728
REMARK  282  A    between atoms: P_733  and  OP1_734
REMARK  283  A    between atoms: P_733  and  O5'_736
REMARK  284  A    between atoms: O5'_736  and  C5'_737
REMARK  285  A    between atoms: C5'_737  and  C4'_738
REMARK  286  A    between atoms: C3'_740  and  O3'_741
REMARK  287  A    between atoms: O3'_741  and  P_753
REMARK  288  A    between atoms: C2'_742  and  O2'_743
REMARK  289  A    between atoms: C1'_744  and  N1_745
REMARK  290  A    between atoms: P_753  and  OP1_754
REMARK  291  A    between atoms: P_753  and  O5'_756
REMARK  292  A    between atoms: O5'_756  and  C5'_757
REMARK  293  A    between atoms: C5'_757  and  C4'_758
REMARK  294  A    between atoms: C3'_760  and  O3'_761
REMARK  295  A    between atoms: O3'_761  and  P_775
REMARK  296  A    between atoms: C2'_762  and  O2'_763
REMARK  297  A    between atoms: C1'_764  and  N9_765
REMARK  298  A    between atoms: C6_769  and  N6_770
REMARK  299  A    between atoms: P_775  and  OP2_777
REMARK  300  A    between atoms: P_775  and  O5'_778
REMARK  301  A    between atoms: O5'_778  and  C5'_779
REMARK  302  A    between atoms: C5'_779  and  C4'_780
REMARK  303  A    between atoms: C3'_782  and  O3'_783
REMARK  304  A    between atoms: O3'_783  and  P_795
REMARK  305  A    between atoms: C2'_784  and  O2'_785
REMARK  306  A    between atoms: C1'_786  and  N1_787
REMARK  307  A    between atoms: P_795  and  OP2_797
REMARK  308  A    between atoms: P_795  and  O5'_798
REMARK  309  A    between atoms: O5'_798  and  C5'_799
REMARK  310  A    between atoms: C5'_799  and  C4'_800
REMARK  311  A    between atoms: C3'_802  and  O3'_803
REMARK  312  A    between atoms: O3'_803  and  P_815
REMARK  313  A    between atoms: C2'_804  and  O2'_805
REMARK  314  A    between atoms: C1'_806  and  N1_807
REMARK  315  A    between atoms: P_815  and  OP2_817
REMARK  316  A    between atoms: P_815  and  O5'_818
REMARK  317  A    between atoms: O5'_818  and  C5'_819
REMARK  318  A    between atoms: C5'_819  and  C4'_820
REMARK  319  A    between atoms: C3'_822  and  O3'_823
REMARK  320  A    between atoms: O3'_823  and  P_835
REMARK  321  A    between atoms: C2'_824  and  O2'_825
REMARK  322  A    between atoms: C1'_826  and  N1_827
REMARK  323  A    between atoms: P_835  and  OP1_836
REMARK  324  A    between atoms: P_835  and  O5'_838
REMARK  325  A    between atoms: O5'_838  and  C5'_839
REMARK  326  A    between atoms: C5'_839  and  C4'_840
REMARK  327  A    between atoms: C3'_842  and  O3'_843
REMARK  328  A    between atoms: O3'_843  and  P_855
REMARK  329  A    between atoms: C2'_844  and  O2'_845
REMARK  330  A    between atoms: C1'_846  and  N1_847
REMARK  331  A    between atoms: P_855  and  OP1_856
REMARK  332  A    between atoms: P_855  and  O5'_858
REMARK  333  A    between atoms: O5'_858  and  C5'_859
REMARK  334  A    between atoms: C5'_859  and  C4'_860
REMARK  335  A    between atoms: C3'_862  and  O3'_863
REMARK  336  A    between atoms: O3'_863  and  P_875
REMARK  337  A    between atoms: C2'_864  and  O2'_865
REMARK  338  A    between atoms: C1'_866  and  N1_867
REMARK  339  A    between atoms: P_875  and  OP1_876
REMARK  340  A    between atoms: P_875  and  O5'_878
REMARK  341  A    between atoms: O5'_878  and  C5'_879
REMARK  342  A    between atoms: C5'_879  and  C4'_880
REMARK  343  A    between atoms: C3'_882  and  O3'_883
REMARK  344  A    between atoms: O3'_883  and  P_897
REMARK  345  A    between atoms: C2'_884  and  O2'_885
REMARK  346  A    between atoms: C1'_886  and  N9_887
REMARK  347  A    between atoms: P_897  and  OP1_898
REMARK  348  A    between atoms: P_897  and  O5'_900
REMARK  349  A    between atoms: O5'_900  and  C5'_901
REMARK  350  A    between atoms: C5'_901  and  C4'_902
REMARK  351  A    between atoms: C3'_904  and  O3'_905
REMARK  352  A    between atoms: O3'_905  and  P_917
REMARK  353  A    between atoms: C2'_906  and  O2'_907
REMARK  354  A    between atoms: C1'_908  and  N1_909
REMARK  355  A    between atoms: P_917  and  OP1_918
REMARK  356  A    between atoms: P_917  and  O5'_920
REMARK  357  A    between atoms: O5'_920  and  C5'_921
REMARK  358  A    between atoms: C5'_921  and  C4'_922
REMARK  359  A    between atoms: C3'_924  and  O3'_925
REMARK  360  A    between atoms: O3'_925  and  P_937
REMARK  361  A    between atoms: C2'_926  and  O2'_927
REMARK  362  A    between atoms: C1'_928  and  N1_929
REMARK  363  A    between atoms: P_937  and  OP1_938
REMARK  364  A    between atoms: P_937  and  O5'_940
REMARK  365  A    between atoms: O5'_940  and  C5'_941
REMARK  366  A    between atoms: C5'_941  and  C4'_942
REMARK  367  A    between atoms: C3'_944  and  O3'_945
REMARK  368  A    between atoms: O3'_945  and  P_957
REMARK  369  A    between atoms: C2'_946  and  O2'_947
REMARK  370  A    between atoms: C1'_948  and  N1_949
REMARK  371  A    between atoms: P_957  and  OP1_958
REMARK  372  A    between atoms: P_957  and  O5'_960
REMARK  373  A    between atoms: O5'_960  and  C5'_961
REMARK  374  A    between atoms: C5'_961  and  C4'_962
REMARK  375  A    between atoms: C3'_964  and  O3'_965
REMARK  376  A    between atoms: O3'_965  and  P_977
REMARK  377  A    between atoms: C2'_966  and  O2'_967
REMARK  378  A    between atoms: C1'_968  and  N1_969
REMARK  379  A    between atoms: P_977  and  OP1_978
REMARK  380  A    between atoms: P_977  and  O5'_980
REMARK  381  A    between atoms: O5'_980  and  C5'_981
REMARK  382  A    between atoms: C5'_981  and  C4'_982
REMARK  383  A    between atoms: C3'_984  and  O3'_985
REMARK  384  A    between atoms: O3'_985  and  P_999
REMARK  385  A    between atoms: C2'_986  and  O2'_987
REMARK  386  A    between atoms: C1'_988  and  N9_989
REMARK  387  A    between atoms: C6_993  and  N6_994
REMARK  388  A    between atoms: P_999  and  OP1_1000
REMARK  389  A    between atoms: P_999  and  O5'_1002
REMARK  390  A    between atoms: O5'_1002  and  C5'_1003
REMARK  391  A    between atoms: C5'_1003  and  C4'_1004
REMARK  392  A    between atoms: C3'_1006  and  O3'_1007
REMARK  393  A    between atoms: O3'_1007  and  P_1019
REMARK  394  A    between atoms: C2'_1008  and  O2'_1009
REMARK  395  A    between atoms: C1'_1010  and  N1_1011
REMARK  396  A    between atoms: P_1019  and  OP1_1020
REMARK  397  A    between atoms: P_1019  and  O5'_1022
REMARK  398  A    between atoms: O5'_1022  and  C5'_1023
REMARK  399  A    between atoms: C5'_1023  and  C4'_1024
REMARK  400  A    between atoms: C3'_1026  and  O3'_1027
REMARK  401  A    between atoms: O3'_1027  and  P_1039
REMARK  402  A    between atoms: C2'_1028  and  O2'_1029
REMARK  403  A    between atoms: C1'_1030  and  N1_1031
REMARK  404  A    between atoms: P_1039  and  OP1_1040
REMARK  405  A    between atoms: P_1039  and  O5'_1042
REMARK  406  A    between atoms: O5'_1042  and  C5'_1043
REMARK  407  A    between atoms: C5'_1043  and  C4'_1044
REMARK  408  A    between atoms: C3'_1046  and  O3'_1047
REMARK  409  A    between atoms: O3'_1047  and  P_1059
REMARK  410  A    between atoms: C2'_1048  and  O2'_1049
REMARK  411  A    between atoms: C1'_1050  and  N1_1051
REMARK  412  A    between atoms: P_1059  and  OP2_1061
REMARK  413  A    between atoms: P_1059  and  O5'_1062
REMARK  414  A    between atoms: O5'_1062  and  C5'_1063
REMARK  415  A    between atoms: C5'_1063  and  C4'_1064
REMARK  416  A    between atoms: C3'_1066  and  O3'_1067
REMARK  417  A    between atoms: O3'_1067  and  P_1079
REMARK  418  A    between atoms: C2'_1068  and  O2'_1069
REMARK  419  A    between atoms: C1'_1070  and  N1_1071
REMARK  420  A    between atoms: P_1079  and  OP2_1081
REMARK  421  A    between atoms: P_1079  and  O5'_1082
REMARK  422  A    between atoms: O5'_1082  and  C5'_1083
REMARK  423  A    between atoms: C5'_1083  and  C4'_1084
REMARK  424  A    between atoms: C3'_1086  and  O3'_1087
REMARK  425  A    between atoms: O3'_1087  and  P_1101
REMARK  426  A    between atoms: C2'_1088  and  O2'_1089
REMARK  427  A    between atoms: C1'_1090  and  N9_1091
REMARK  428  A    between atoms: P_1101  and  OP2_1103
REMARK  429  A    between atoms: P_1101  and  O5'_1104
REMARK  430  A    between atoms: O5'_1104  and  C5'_1105
REMARK  431  A    between atoms: C5'_1105  and  C4'_1106
REMARK  432  A    between atoms: C3'_1108  and  O3'_1109
REMARK  433  A    between atoms: O3'_1109  and  P_1123
REMARK  434  A    between atoms: C2'_1110  and  O2'_1111
REMARK  435  A    between atoms: C1'_1112  and  N9_1113
REMARK  436  A    between atoms: P_1123  and  OP2_1125
REMARK  437  A    between atoms: P_1123  and  O5'_1126
REMARK  438  A    between atoms: O5'_1126  and  C5'_1127
REMARK  439  A    between atoms: C5'_1127  and  C4'_1128
REMARK  440  A    between atoms: C3'_1130  and  O3'_1131
REMARK  441  A    between atoms: O3'_1131  and  P_1145
REMARK  442  A    between atoms: C2'_1132  and  O2'_1133
REMARK  443  A    between atoms: C1'_1134  and  N9_1135
REMARK  444  A    between atoms: P_1145  and  OP1_1146
REMARK  445  A    between atoms: P_1145  and  O5'_1148
REMARK  446  A    between atoms: O5'_1148  and  C5'_1149
REMARK  447  A    between atoms: C5'_1149  and  C4'_1150
REMARK  448  A    between atoms: C3'_1152  and  O3'_1153
REMARK  449  A    between atoms: O3'_1153  and  P_1167
REMARK  450  A    between atoms: C2'_1154  and  O2'_1155
REMARK  451  A    between atoms: C1'_1156  and  N9_1157
REMARK  452  A    between atoms: C6_1161  and  N6_1162
REMARK  453  A    between atoms: P_1167  and  OP1_1168
REMARK  454  A    between atoms: P_1167  and  O5'_1170
REMARK  455  A    between atoms: O5'_1170  and  C5'_1171
REMARK  456  A    between atoms: C5'_1171  and  C4'_1172
REMARK  457  A    between atoms: C3'_1174  and  O3'_1175
REMARK  458  A    between atoms: O3'_1175  and  P_1189
REMARK  459  A    between atoms: C2'_1176  and  O2'_1177
REMARK  460  A    between atoms: C1'_1178  and  N9_1179
REMARK  461  A    between atoms: C6_1183  and  N6_1184
REMARK  462  A    between atoms: P_1189  and  OP2_1191
REMARK  463  A    between atoms: P_1189  and  O5'_1192
REMARK  464  A    between atoms: O5'_1192  and  C5'_1193
REMARK  465  A    between atoms: C5'_1193  and  C4'_1194
REMARK  466  A    between atoms: C3'_1196  and  O3'_1197
REMARK  467  A    between atoms: O3'_1197  and  P_1209
REMARK  468  A    between atoms: C2'_1198  and  O2'_1199
REMARK  469  A    between atoms: C1'_1200  and  N1_1201
REMARK  470  A    between atoms: P_1209  and  OP1_1210
REMARK  471  A    between atoms: P_1209  and  O5'_1212
REMARK  472  A    between atoms: O5'_1212  and  C5'_1213
REMARK  473  A    between atoms: C5'_1213  and  C4'_1214
REMARK  474  A    between atoms: C3'_1216  and  O3'_1217
REMARK  475  A    between atoms: O3'_1217  and  P_1231
REMARK  476  A    between atoms: C2'_1218  and  O2'_1219
REMARK  477  A    between atoms: C1'_1220  and  N9_1221
REMARK  478  A    between atoms: C6_1225  and  N6_1226
REMARK  479  A    between atoms: P_1231  and  OP1_1232
REMARK  480  A    between atoms: P_1231  and  O5'_1234
REMARK  481  A    between atoms: O5'_1234  and  C5'_1235
REMARK  482  A    between atoms: C5'_1235  and  C4'_1236
REMARK  483  A    between atoms: C3'_1238  and  O3'_1239
REMARK  484  A    between atoms: O3'_1239  and  P_1254
REMARK  485  A    between atoms: C2'_1240  and  O2'_1241
REMARK  486  A    between atoms: C1'_1242  and  N9_1243
REMARK  487  A    between atoms: P_1254  and  OP2_1256
REMARK  488  A    between atoms: P_1254  and  O5'_1257
REMARK  489  A    between atoms: O5'_1257  and  C5'_1258
REMARK  490  A    between atoms: C5'_1258  and  C4'_1259
REMARK  491  A    between atoms: C3'_1261  and  O3'_1262
REMARK  492  A    between atoms: O3'_1262  and  P_1276
REMARK  493  A    between atoms: C2'_1263  and  O2'_1264
REMARK  494  A    between atoms: C1'_1265  and  N9_1266
REMARK  495  A    between atoms: C6_1270  and  N6_1271
REMARK  496  A    between atoms: P_1276  and  OP1_1277
REMARK  497  A    between atoms: P_1276  and  O5'_1279
REMARK  498  A    between atoms: O5'_1279  and  C5'_1280
REMARK  499  A    between atoms: C5'_1280  and  C4'_1281
REMARK  500  A    between atoms: C3'_1283  and  O3'_1284
REMARK  501  A    between atoms: O3'_1284  and  P_1296
REMARK  502  A    between atoms: C2'_1285  and  O2'_1286
REMARK  503  A    between atoms: C1'_1287  and  N1_1288
REMARK  504  A    between atoms: P_1296  and  OP1_1297
REMARK  505  A    between atoms: P_1296  and  O5'_1299
REMARK  506  A    between atoms: O5'_1299  and  C5'_1300
REMARK  507  A    between atoms: C5'_1300  and  C4'_1301
REMARK  508  A    between atoms: C3'_1303  and  O3'_1304
REMARK  509  A    between atoms: O3'_1304  and  P_1316
REMARK  510  A    between atoms: C2'_1305  and  O2'_1306
REMARK  511  A    between atoms: C1'_1307  and  N1_1308
REMARK  512  A    between atoms: P_1316  and  OP1_1317
REMARK  513  A    between atoms: P_1316  and  O5'_1319
REMARK  514  A    between atoms: O5'_1319  and  C5'_1320
REMARK  515  A    between atoms: C5'_1320  and  C4'_1321
REMARK  516  A    between atoms: C3'_1323  and  O3'_1324
REMARK  517  A    between atoms: O3'_1324  and  P_1338
REMARK  518  A    between atoms: C2'_1325  and  O2'_1326
REMARK  519  A    between atoms: C1'_1327  and  N9_1328
REMARK  520  A    between atoms: C6_1332  and  N6_1333
REMARK  521  A    between atoms: P_1338  and  OP1_1339
REMARK  522  A    between atoms: P_1338  and  O5'_1341
REMARK  523  A    between atoms: O5'_1341  and  C5'_1342
REMARK  524  A    between atoms: C5'_1342  and  C4'_1343
REMARK  525  A    between atoms: C3'_1345  and  O3'_1346
REMARK  526  A    between atoms: O3'_1346  and  P_1358
REMARK  527  A    between atoms: C2'_1347  and  O2'_1348
REMARK  528  A    between atoms: C1'_1349  and  N1_1350
REMARK  529  A    between atoms: P_1358  and  OP1_1359
REMARK  530  A    between atoms: P_1358  and  O5'_1361
REMARK  531  A    between atoms: O5'_1361  and  C5'_1362
REMARK  532  A    between atoms: C5'_1362  and  C4'_1363
REMARK  533  A    between atoms: C3'_1365  and  O3'_1366
REMARK  534  A    between atoms: O3'_1366  and  P_1380
REMARK  535  A    between atoms: C2'_1367  and  O2'_1368
REMARK  536  A    between atoms: C1'_1369  and  N9_1370
REMARK  537  A    between atoms: C6_1374  and  N6_1375
REMARK  538  A    between atoms: P_1380  and  OP1_1381
REMARK  539  A    between atoms: P_1380  and  O5'_1383
REMARK  540  A    between atoms: O5'_1383  and  C5'_1384
REMARK  541  A    between atoms: C5'_1384  and  C4'_1385
REMARK  542  A    between atoms: C3'_1387  and  O3'_1388
REMARK  543  A    between atoms: O3'_1388  and  P_1402
REMARK  544  A    between atoms: C2'_1389  and  O2'_1390
REMARK  545  A    between atoms: C1'_1391  and  N9_1392
REMARK  546  A    between atoms: C6_1396  and  N6_1397
REMARK  547  A    between atoms: P_1402  and  OP1_1403
REMARK  548  A    between atoms: P_1402  and  O5'_1405
REMARK  549  A    between atoms: O5'_1405  and  C5'_1406
REMARK  550  A    between atoms: C5'_1406  and  C4'_1407
REMARK  551  A    between atoms: C3'_1409  and  O3'_1410
REMARK  552  A    between atoms: O3'_1410  and  P_1424
REMARK  553  A    between atoms: C2'_1411  and  O2'_1412
REMARK  554  A    between atoms: C1'_1413  and  N9_1414
REMARK  555  A    between atoms: C6_1418  and  N6_1419
REMARK  556  A    between atoms: P_1424  and  OP1_1425
REMARK  557  A    between atoms: P_1424  and  O5'_1427
REMARK  558  A    between atoms: O5'_1427  and  C5'_1428
REMARK  559  A    between atoms: C5'_1428  and  C4'_1429
REMARK  560  A    between atoms: C3'_1431  and  O3'_1432
REMARK  561  A    between atoms: O3'_1432  and  P_1446
REMARK  562  A    between atoms: C2'_1433  and  O2'_1434
REMARK  563  A    between atoms: C1'_1435  and  N9_1436
REMARK  564  A    between atoms: C6_1440  and  N6_1441
REMARK  565  A    between atoms: P_1446  and  OP1_1447
REMARK  566  A    between atoms: P_1446  and  O5'_1449
REMARK  567  A    between atoms: O5'_1449  and  C5'_1450
REMARK  568  A    between atoms: C5'_1450  and  C4'_1451
REMARK  569  A    between atoms: C3'_1453  and  O3'_1454
REMARK  570  A    between atoms: O3'_1454  and  P_1468
REMARK  571  A    between atoms: C2'_1455  and  O2'_1456
REMARK  572  A    between atoms: C1'_1457  and  N9_1458
REMARK  573  A    between atoms: P_1468  and  OP1_1469
REMARK  574  A    between atoms: P_1468  and  O5'_1471
REMARK  575  A    between atoms: O5'_1471  and  C5'_1472
REMARK  576  A    between atoms: C5'_1472  and  C4'_1473
REMARK  577  A    between atoms: C3'_1475  and  O3'_1476
REMARK  578  A    between atoms: O3'_1476  and  P_1488
REMARK  579  A    between atoms: C2'_1477  and  O2'_1478
REMARK  580  A    between atoms: C1'_1479  and  N1_1480
REMARK  581  A    between atoms: P_1488  and  OP2_1490
REMARK  582  A    between atoms: P_1488  and  O5'_1491
REMARK  583  A    between atoms: O5'_1491  and  C5'_1492
REMARK  584  A    between atoms: C5'_1492  and  C4'_1493
REMARK  585  A    between atoms: C3'_1495  and  O3'_1496
REMARK  586  A    between atoms: O3'_1496  and  P_1508
REMARK  587  A    between atoms: C2'_1497  and  O2'_1498
REMARK  588  A    between atoms: C1'_1499  and  N1_1500
REMARK  589  A    between atoms: P_1508  and  OP2_1510
REMARK  590  A    between atoms: P_1508  and  O5'_1511
REMARK  591  A    between atoms: O5'_1511  and  C5'_1512
REMARK  592  A    between atoms: C5'_1512  and  C4'_1513
REMARK  593  A    between atoms: C3'_1515  and  O3'_1516
REMARK  594  A    between atoms: O3'_1516  and  P_1528
REMARK  595  A    between atoms: C2'_1517  and  O2'_1518
REMARK  596  A    between atoms: C1'_1519  and  N1_1520
REMARK  597  A    between atoms: P_1528  and  OP2_1530
REMARK  598  A    between atoms: P_1528  and  O5'_1531
REMARK  599  A    between atoms: O5'_1531  and  C5'_1532
REMARK  600  A    between atoms: C5'_1532  and  C4'_1533
REMARK  601  A    between atoms: C3'_1535  and  O3'_1536
REMARK  602  A    between atoms: O3'_1536  and  P_1548
REMARK  603  A    between atoms: C2'_1537  and  O2'_1538
REMARK  604  A    between atoms: C1'_1539  and  N1_1540
REMARK  605  A    between atoms: P_1548  and  OP2_1550
REMARK  606  A    between atoms: P_1548  and  O5'_1551
REMARK  607  A    between atoms: O5'_1551  and  C5'_1552
REMARK  608  A    between atoms: C5'_1552  and  C4'_1553
REMARK  609  A    between atoms: C3'_1555  and  O3'_1556
REMARK  610  A    between atoms: O3'_1556  and  P_1568
REMARK  611  A    between atoms: C2'_1557  and  O2'_1558
REMARK  612  A    between atoms: C1'_1559  and  N1_1560
REMARK  613  A    between atoms: P_1568  and  OP1_1569
REMARK  614  A    between atoms: P_1568  and  O5'_1571
REMARK  615  A    between atoms: O5'_1571  and  C5'_1572
REMARK  616  A    between atoms: C5'_1572  and  C4'_1573
REMARK  617  A    between atoms: C3'_1575  and  O3'_1576
REMARK  618  A    between atoms: C2'_1577  and  O2'_1578
REMARK  619  A    between atoms: C1'_1579  and  N9_1580
REMARK  620  A    between atoms: C6_1584  and  N6_1585
REMARK                            x       y       z     vdW  Elec       q    Type
REMARK                         _______ _______ _______ _____ _____    ______ ____
ROOT
ATOM      1  P   U   B  39      13.222   6.226  -5.056  0.00  0.00    +0.000 P 
ATOM      2  OP1 U   B  39      14.064   7.046  -5.949  0.00  0.00    +0.000 OA
ENDROOT
BRANCH   1   3
ATOM      3  OP2 U   B  39      11.835   6.657  -4.743  0.00  0.00    +0.000 OA
ATOM      4  H   U   B  39      11.343   6.788  -5.569  0.00  0.00    +0.000 HD
ENDBRANCH   1   3
BRANCH   1   5
ATOM      5  O5' U   B  39      13.147   4.738  -5.650  0.00  0.00    +0.000 OA
BRANCH   5   6
ATOM      6  C5' U   B  39      14.318   3.996  -5.911  0.00  0.00    +0.000 C 
BRANCH   6   7
ATOM      7  C4' U   B  39      13.995   2.597  -6.387  0.00  0.00    +0.000 C 
ATOM      8  O4' U   B  39      13.350   1.840  -5.335  0.00  0.00    +0.000 OA
ATOM      9  C3' U   B  39      13.024   2.476  -7.539  0.00  0.00    +0.000 C 
ATOM     10  C2' U   B  39      12.565   1.021  -7.419  0.00  0.00    +0.000 C 
ATOM     11  C1' U   B  39      12.577   0.821  -5.912  0.00  0.00    +0.000 C 
BRANCH  11  12
ATOM     12  N1  U   B  39      11.204   0.774  -5.346  0.00  0.00    +0.000 N 
ATOM     13  C2  U   B  39      10.501   1.927  -5.097  0.00  0.00    +0.000 A 
ATOM     14  O2  U   B  39      10.919   3.051  -5.297  0.00  0.00    +0.000 OA
ATOM     15  N3  U   B  39       9.240   1.752  -4.572  0.00  0.00    +0.000 N 
ATOM     16  C4  U   B  39       8.625   0.563  -4.280  0.00  0.00    +0.000 A 
ATOM     17  O4  U   B  39       7.485   0.558  -3.816  0.00  0.00    +0.000 OA
ATOM     18  C5  U   B  39       9.411  -0.588  -4.566  0.00  0.00    +0.000 A 
ATOM     19  C6  U   B  39      10.643  -0.453  -5.066  0.00  0.00    +0.000 A 
ATOM     20  H   U   B  39       8.725   2.570  -4.386  0.00  0.00    +0.000 HD
ENDBRANCH  11  12
BRANCH  10  21
ATOM     21  O2' U   B  39      13.489   0.138  -8.027  0.00  0.00    +0.000 OA
ATOM     22  H   U   B  39      14.366   0.268  -7.634  0.00  0.00    +0.000 HD
ENDBRANCH  10  21
BRANCH   9  23
ATOM     23  O3' U   B  39      13.616   2.788  -8.789  0.00  0.00    +0.000 OA
BRANCH  23  24
ATOM     24  P   C   B  40      12.737   3.486  -9.960  0.00  0.00    +0.000 P 
ATOM     25  OP1 C   B  40      13.534   3.440 -11.221  0.00  0.00    +0.000 OA
BRANCH  24  26
ATOM     26  OP2 C   B  40      12.251   4.792  -9.471  0.00  0.00    +0.000 OA
ATOM     27  H   C   B  40      11.723   5.220 -10.163  0.00  0.00    +0.000 HD
ENDBRANCH  24  26
BRANCH  24  28
ATOM     28  O5' C   B  40      11.480   2.505 -10.121  0.00  0.00    +0.000 OA
BRANCH  28  29
ATOM     29  C5' C   B  40      10.172   3.005 -10.291  0.00  0.00    +0.000 C 
BRANCH  29  30
ATOM     30  C4' C   B  40       9.402   2.189 -11.298  0.00  0.00    +0.000 C 
ATOM     31  O4' C   B  40      10.012   2.334 -12.607  0.00  0.00    +0.000 OA
ATOM     32  C3' C   B  40       9.377   0.691 -11.053  0.00  0.00    +0.000 C 
ATOM     33  C2' C   B  40       9.110   0.137 -12.449  0.00  0.00    +0.000 C 
ATOM     34  C1' C   B  40       9.864   1.131 -13.337  0.00  0.00    +0.000 C 
BRANCH  34  35
ATOM     35  N1  C   B  40      11.203   0.651 -13.752  0.00  0.00    +0.000 N 
ATOM     36  C2  C   B  40      11.299  -0.161 -14.890  0.00  0.00    +0.000 A 
ATOM     37  O2  C   B  40      10.277  -0.461 -15.510  0.00  0.00    +0.000 OA
ATOM     38  N3  C   B  40      12.523  -0.598 -15.281  0.00  0.00    +0.000 NA
ATOM     39  C4  C   B  40      13.610  -0.256 -14.589  0.00  0.00    +0.000 A 
ATOM     40  N4  C   B  40      14.787  -0.714 -15.012  0.00  0.00    +0.000 N 
ATOM     41  C5  C   B  40      13.535   0.565 -13.432  0.00  0.00    +0.000 A 
ATOM     42  C6  C   B  40      12.320   0.995 -13.050  0.00  0.00    +0.000 A 
ATOM     43  H   C   B  40      14.834  -1.283 -15.814  0.00  0.00    +0.000 HD
ATOM     44  H   C   B  40      15.610  -0.484 -14.522  0.00  0.00    +0.000 HD
ENDBRANCH  34  35
BRANCH  33  45
ATOM     45  O2' C   B  40       7.740   0.173 -12.775  0.00  0.00    +0.000 OA
ATOM     46  H   C   B  40       7.413   1.083 -12.698  0.00  0.00    +0.000 HD
ENDBRANCH  33  45
BRANCH  32  47
ATOM     47  O3' C   B  40       8.381   0.325 -10.112  0.00  0.00    +0.000 OA
BRANCH  47  48
ATOM     48  P   U   B  41       8.699  -0.682  -8.920  0.00  0.00    +0.000 P 
ATOM     49  OP2 U   B  41       9.994  -0.283  -8.314  0.00  0.00    +0.000 OA
BRANCH  48  50
ATOM     50  OP1 U   B  41       7.493  -0.791  -8.069  0.00  0.00    +0.000 OA
ATOM     51  H   U   B  41       6.736  -1.059  -8.613  0.00  0.00    +0.000 HD
ENDBRANCH  48  50
BRANCH  48  52
ATOM     52  O5' U   B  41       8.915  -2.084  -9.657  0.00  0.00    +0.000 OA
BRANCH  52  53
ATOM     53  C5' U   B  41       7.861  -2.692 -10.382  0.00  0.00    +0.000 C 
BRANCH  53  54
ATOM     54  C4' U   B  41       8.197  -4.123 -10.705  0.00  0.00    +0.000 C 
ATOM     55  O4' U   B  41       9.290  -4.169 -11.652  0.00  0.00    +0.000 OA
ATOM     56  C3' U   B  41       8.681  -4.949  -9.525  0.00  0.00    +0.000 C 
ATOM     57  C2' U   B  41       9.510  -6.042 -10.197  0.00  0.00    +0.000 C 
ATOM     58  C1' U   B  41      10.118  -5.285 -11.379  0.00  0.00    +0.000 C 
BRANCH  58  59
ATOM     59  N1  U   B  41      11.488  -4.796 -11.117  0.00  0.00    +0.000 N 
ATOM     60  C2  U   B  41      12.532  -5.689 -11.268  0.00  0.00    +0.000 A 
ATOM     61  O2  U   B  41      12.367  -6.851 -11.586  0.00  0.00    +0.000 OA
ATOM     62  N3  U   B  41      13.781  -5.171 -11.023  0.00  0.00    +0.000 N 
ATOM     63  C4  U   B  41      14.088  -3.877 -10.656  0.00  0.00    +0.000 A 
ATOM     64  O4  U   B  41      15.262  -3.560 -10.476  0.00  0.00    +0.000 OA
ATOM     65  C5  U   B  41      12.956  -3.014 -10.520  0.00  0.00    +0.000 A 
ATOM     66  C6  U   B  41      11.727  -3.490 -10.754  0.00  0.00    +0.000 A 
ATOM     67  H   U   B  41      14.540  -5.791 -11.120  0.00  0.00    +0.000 HD
ENDBRANCH  58  59
BRANCH  57  68
ATOM     68  O2' U   B  41       8.701  -7.094 -10.688  0.00  0.00    +0.000 OA
ATOM     69  H   U   B  41       8.041  -6.735 -11.301  0.00  0.00    +0.000 HD
ENDBRANCH  57  68
BRANCH  56  70
ATOM     70  O3' U   B  41       7.586  -5.447  -8.768  0.00  0.00    +0.000 OA
BRANCH  70  71
ATOM     71  P   U   B  42       7.754  -5.907  -7.238  0.00  0.00    +0.000 P 
ATOM     72  OP2 U   B  42       8.875  -5.151  -6.640  0.00  0.00    +0.000 OA
BRANCH  71  73
ATOM     73  OP1 U   B  42       6.428  -5.878  -6.570  0.00  0.00    +0.000 OA
ATOM     74  H   U   B  42       5.799  -6.416  -7.076  0.00  0.00    +0.000 HD
ENDBRANCH  71  73
BRANCH  71  75
ATOM     75  O5' U   B  42       8.178  -7.432  -7.412  0.00  0.00    +0.000 OA
BRANCH  75  76
ATOM     76  C5' U   B  42       8.659  -8.169  -6.304  0.00  0.00    +0.000 C 
BRANCH  76  77
ATOM     77  C4' U   B  42       9.724  -9.150  -6.724  0.00  0.00    +0.000 C 
ATOM     78  O4' U   B  42      10.513  -8.598  -7.815  0.00  0.00    +0.000 OA
ATOM     79  C3' U   B  42      10.741  -9.465  -5.652  0.00  0.00    +0.000 C 
ATOM     80  C2' U   B  42      11.956  -9.911  -6.462  0.00  0.00    +0.000 C 
ATOM     81  C1' U   B  42      11.854  -9.013  -7.701  0.00  0.00    +0.000 C 
BRANCH  81  82
ATOM     82  N1  U   B  42      12.720  -7.813  -7.613  0.00  0.00    +0.000 N 
ATOM     83  C2  U   B  42      14.058  -7.959  -7.939  0.00  0.00    +0.000 A 
ATOM     84  O2  U   B  42      14.546  -9.020  -8.283  0.00  0.00    +0.000 OA
ATOM     85  N3  U   B  42      14.811  -6.812  -7.836  0.00  0.00    +0.000 N 
ATOM     86  C4  U   B  42      14.371  -5.560  -7.453  0.00  0.00    +0.000 A 
ATOM     87  O4  U   B  42      15.166  -4.627  -7.411  0.00  0.00    +0.000 OA
ATOM     88  C5  U   B  42      12.976  -5.492  -7.136  0.00  0.00    +0.000 A 
ATOM     89  C6  U   B  42      12.218  -6.594  -7.227  0.00  0.00    +0.000 A 
ATOM     90  H   U   B  42      15.766  -6.892  -8.059  0.00  0.00    +0.000 HD
ENDBRANCH  81  82
BRANCH  80  91
ATOM     91  O2' U   B  42      11.850 -11.266  -6.866  0.00  0.00    +0.000 OA
ATOM     92  H   U   B  42      11.031 -11.390  -7.371  0.00  0.00    +0.000 HD
ENDBRANCH  80  91
BRANCH  79  93
ATOM     93  O3' U   B  42      10.264 -10.463  -4.746  0.00  0.00    +0.000 OA
BRANCH  93  94
ATOM     94  P   A   B  43       9.701 -10.079  -3.280  0.00  0.00    +0.000 P 
ATOM     95  OP2 A   B  43       8.526  -9.183  -3.419  0.00  0.00    +0.000 OA
BRANCH  94  96
ATOM     96  OP1 A   B  43       9.565 -11.346  -2.514  0.00  0.00    +0.000 OA
ATOM     97  H   A   B  43       8.849 -11.879  -2.895  0.00  0.00    +0.000 HD
ENDBRANCH  94  96
BRANCH  94  98
ATOM     98  O5' A   B  43      10.883  -9.238  -2.624  0.00  0.00    +0.000 OA
BRANCH  98  99
ATOM     99  C5' A   B  43      12.205  -9.778  -2.534  0.00  0.00    +0.000 C 
BRANCH  99 100
ATOM    100  C4' A   B  43      13.217  -8.680  -2.325  0.00  0.00    +0.000 C 
ATOM    101  O4' A   B  43      13.063  -7.661  -3.352  0.00  0.00    +0.000 OA
ATOM    102  C3' A   B  43      13.095  -7.907  -1.021  0.00  0.00    +0.000 C 
ATOM    103  C2' A   B  43      13.798  -6.600  -1.362  0.00  0.00    +0.000 C 
ATOM    104  C1' A   B  43      13.332  -6.380  -2.806  0.00  0.00    +0.000 C 
BRANCH 104 105
ATOM    105  N9  A   B  43      12.104  -5.577  -2.860  0.00  0.00    +0.000 N 
ATOM    106  C8  A   B  43      10.830  -6.001  -3.146  0.00  0.00    +0.000 A 
ATOM    107  N7  A   B  43       9.932  -5.047  -3.102  0.00  0.00    +0.000 NA
ATOM    108  C5  A   B  43      10.664  -3.915  -2.762  0.00  0.00    +0.000 A 
ATOM    109  C6  A   B  43      10.297  -2.575  -2.558  0.00  0.00    +0.000 A 
ATOM    110  N6  A   B  43       9.038  -2.126  -2.663  0.00  0.00    +0.000 N 
ATOM    111  N1  A   B  43      11.265  -1.698  -2.230  0.00  0.00    +0.000 NA
ATOM    112  C2  A   B  43      12.522  -2.152  -2.118  0.00  0.00    +0.000 A 
ATOM    113  N3  A   B  43      12.995  -3.385  -2.288  0.00  0.00    +0.000 NA
ATOM    114  C4  A   B  43      12.002  -4.230  -2.612  0.00  0.00    +0.000 A 
ATOM    115  H   A   B  43       8.312  -2.747  -2.902  0.00  0.00    +0.000 HD
ATOM    116  H   A   B  43       8.839  -1.175  -2.502  0.00  0.00    +0.000 HD
ENDBRANCH 104 105
BRANCH 103 117
ATOM    117  O2' A   B  43      15.207  -6.740  -1.345  0.00  0.00    +0.000 OA
ATOM    118  H   A   B  43      15.469  -7.449  -1.953  0.00  0.00    +0.000 HD
ENDBRANCH 103 117
BRANCH 102 119
ATOM    119  O3' A   B  43      13.668  -8.588   0.089  0.00  0.00    +0.000 OA
BRANCH 119 120
ATOM    120  P   C   B  44      12.929  -8.586   1.524  0.00  0.00    +0.000 P 
ATOM    121  OP2 C   B  44      11.484  -8.868   1.318  0.00  0.00    +0.000 OA
BRANCH 120 122
ATOM    122  OP1 C   B  44      13.722  -9.440   2.444  0.00  0.00    +0.000 OA
ATOM    123  H   C   B  44      13.651 -10.367   2.167  0.00  0.00    +0.000 HD
ENDBRANCH 120 122
BRANCH 120 124
ATOM    124  O5' C   B  44      13.068  -7.072   2.008  0.00  0.00    +0.000 OA
BRANCH 124 125
ATOM    125  C5' C   B  44      14.344  -6.463   2.171  0.00  0.00    +0.000 C 
BRANCH 125 126
ATOM    126  C4' C   B  44      14.223  -4.963   2.235  0.00  0.00    +0.000 C 
ATOM    127  O4' C   B  44      13.529  -4.472   1.061  0.00  0.00    +0.000 OA
ATOM    128  C3' C   B  44      13.421  -4.416   3.404  0.00  0.00    +0.000 C 
ATOM    129  C2' C   B  44      12.977  -3.053   2.883  0.00  0.00    +0.000 C 
ATOM    130  C1' C   B  44      12.740  -3.346   1.399  0.00  0.00    +0.000 C 
BRANCH 130 131
ATOM    131  N1  C   B  44      11.329  -3.645   1.077  0.00  0.00    +0.000 N 
ATOM    132  C2  C   B  44      10.416  -2.586   1.003  0.00  0.00    +0.000 A 
ATOM    133  O2  C   B  44      10.812  -1.434   1.215  0.00  0.00    +0.000 OA
ATOM    134  N3  C   B  44       9.119  -2.848   0.701  0.00  0.00    +0.000 NA
ATOM    135  C4  C   B  44       8.724  -4.106   0.478  0.00  0.00    +0.000 A 
ATOM    136  N4  C   B  44       7.433  -4.310   0.183  0.00  0.00    +0.000 N 
ATOM    137  C5  C   B  44       9.632  -5.200   0.545  0.00  0.00    +0.000 A 
ATOM    138  C6  C   B  44      10.913  -4.928   0.843  0.00  0.00    +0.000 A 
ATOM    139  H   C   B  44       7.105  -5.223   0.013  0.00  0.00    +0.000 HD
ATOM    140  H   C   B  44       6.812  -3.547   0.137  0.00  0.00    +0.000 HD
ENDBRANCH 130 131
BRANCH 129 141
ATOM    141  O2' C   B  44      14.007  -2.086   3.002  0.00  0.00    +0.000 OA
ATOM    142  H   C   B  44      14.798  -2.397   2.535  0.00  0.00    +0.000 HD
ENDBRANCH 129 141
BRANCH 128 143
ATOM    143  O3' C   B  44      14.202  -4.334   4.587  0.00  0.00    +0.000 OA
BRANCH 143 144
ATOM    144  P   U   B  45      13.551  -4.051   6.042  0.00  0.00    +0.000 P 
ATOM    145  OP2 U   B  45      12.111  -4.395   6.019  0.00  0.00    +0.000 OA
BRANCH 144 146
ATOM    146  OP1 U   B  45      14.439  -4.667   7.055  0.00  0.00    +0.000 OA
ATOM    147  H   U   B  45      14.373  -5.633   6.998  0.00  0.00    +0.000 HD
ENDBRANCH 144 146
BRANCH 144 148
ATOM    148  O5' U   B  45      13.692  -2.462   6.171  0.00  0.00    +0.000 OA
BRANCH 148 149
ATOM    149  C5' U   B  45      14.956  -1.823   6.026  0.00  0.00    +0.000 C 
BRANCH 149 150
ATOM    150  C4' U   B  45      14.855  -0.347   6.311  0.00  0.00    +0.000 C 
ATOM    151  O4' U   B  45      13.918   0.279   5.395  0.00  0.00    +0.000 OA
ATOM    152  C3' U   B  45      14.326   0.019   7.684  0.00  0.00    +0.000 C 
ATOM    153  C2' U   B  45      13.803   1.437   7.463  0.00  0.00    +0.000 C 
ATOM    154  C1' U   B  45      13.227   1.331   6.049  0.00  0.00    +0.000 C 
BRANCH 154 155
ATOM    155  N1  U   B  45      11.779   1.032   6.046  0.00  0.00    +0.000 N 
ATOM    156  C2  U   B  45      10.905   2.057   6.375  0.00  0.00    +0.000 A 
ATOM    157  O2  U   B  45      11.278   3.176   6.673  0.00  0.00    +0.000 OA
ATOM    158  N3  U   B  45       9.573   1.716   6.348  0.00  0.00    +0.000 N 
ATOM    159  C4  U   B  45       9.031   0.485   6.029  0.00  0.00    +0.000 A 
ATOM    160  O4  U   B  45       7.807   0.340   6.048  0.00  0.00    +0.000 OA
ATOM    161  C5  U   B  45       9.994  -0.518   5.701  0.00  0.00    +0.000 A 
ATOM    162  C6  U   B  45      11.303  -0.215   5.714  0.00  0.00    +0.000 A 
ATOM    163  H   U   B  45       8.934   2.428   6.582  0.00  0.00    +0.000 HD
ENDBRANCH 154 155
BRANCH 153 164
ATOM    164  O2' U   B  45      14.852   2.385   7.471  0.00  0.00    +0.000 OA
ATOM    165  H   U   B  45      15.511   2.144   6.802  0.00  0.00    +0.000 HD
ENDBRANCH 153 164
BRANCH 152 166
ATOM    166  O3' U   B  45      15.330  -0.060   8.688  0.00  0.00    +0.000 OA
BRANCH 166 167
ATOM    167  P   U   B  46      14.963  -0.580  10.174  0.00  0.00    +0.000 P 
ATOM    168  OP2 U   B  46      14.043  -1.744  10.059  0.00  0.00    +0.000 OA
BRANCH 167 169
ATOM    169  OP1 U   B  46      16.233  -0.721  10.929  0.00  0.00    +0.000 OA
ATOM    170  H   U   B  46      16.746  -1.458  10.563  0.00  0.00    +0.000 HD
ENDBRANCH 167 169
BRANCH 167 171
ATOM    171  O5' U   B  46      14.148   0.636  10.799  0.00  0.00    +0.000 OA
BRANCH 171 172
ATOM    172  C5' U   B  46      14.767   1.898  11.025  0.00  0.00    +0.000 C 
BRANCH 172 173
ATOM    173  C4' U   B  46      13.742   2.965  11.318  0.00  0.00    +0.000 C 
ATOM    174  O4' U   B  46      12.835   3.104  10.190  0.00  0.00    +0.000 OA
ATOM    175  C3' U   B  46      12.819   2.699  12.491  0.00  0.00    +0.000 C 
ATOM    176  C2' U   B  46      11.638   3.607  12.172  0.00  0.00    +0.000 C 
ATOM    177  C1' U   B  46      11.541   3.450  10.654  0.00  0.00    +0.000 C 
BRANCH 177 178
ATOM    178  N1  U   B  46      10.583   2.389  10.264  0.00  0.00    +0.000 N 
ATOM    179  C2  U   B  46       9.237   2.716  10.267  0.00  0.00    +0.000 A 
ATOM    180  O2  U   B  46       8.827   3.821  10.574  0.00  0.00    +0.000 OA
ATOM    181  N3  U   B  46       8.387   1.698   9.898  0.00  0.00    +0.000 N 
ATOM    182  C4  U   B  46       8.738   0.415   9.536  0.00  0.00    +0.000 A 
ATOM    183  O4  U   B  46       7.855  -0.389   9.229  0.00  0.00    +0.000 OA
ATOM    184  C5  U   B  46      10.145   0.156   9.558  0.00  0.00    +0.000 A 
ATOM    185  C6  U   B  46      10.999   1.128   9.913  0.00  0.00    +0.000 A 
ATOM    186  H   U   B  46       7.425   1.909   9.892  0.00  0.00    +0.000 HD
ENDBRANCH 177 178
BRANCH 176 187
ATOM    187  O2' U   B  46      11.918   4.958  12.481  0.00  0.00    +0.000 OA
ATOM    188  H   U   B  46      12.716   5.239  12.007  0.00  0.00    +0.000 HD
ENDBRANCH 176 187
BRANCH 175 189
ATOM    189  O3' U   B  46      13.422   2.981  13.749  0.00  0.00    +0.000 OA
BRANCH 189 190
ATOM    190  P   U   B  47      12.945   2.194  15.076  0.00  0.00    +0.000 P 
ATOM    191  OP2 U   B  47      12.742   0.762  14.731  0.00  0.00    +0.000 OA
BRANCH 190 192
ATOM    192  OP1 U   B  47      13.876   2.559  16.173  0.00  0.00    +0.000 OA
ATOM    193  H   U   B  47      14.750   2.179  15.995  0.00  0.00    +0.000 HD
ENDBRANCH 190 192
BRANCH 190 194
ATOM    194  O5' U   B  47      11.517   2.832  15.395  0.00  0.00    +0.000 OA
BRANCH 194 195
ATOM    195  C5' U   B  47      11.394   4.199  15.772  0.00  0.00    +0.000 C 
BRANCH 195 196
ATOM    196  C4' U   B  47       9.953   4.657  15.766  0.00  0.00    +0.000 C 
ATOM    197  O4' U   B  47       9.362   4.446  14.454  0.00  0.00    +0.000 OA
ATOM    198  C3' U   B  47       9.012   3.927  16.703  0.00  0.00    +0.000 C 
ATOM    199  C2' U   B  47       7.654   4.254  16.091  0.00  0.00    +0.000 C 
ATOM    200  C1' U   B  47       7.973   4.198  14.594  0.00  0.00    +0.000 C 
BRANCH 200 201
ATOM    201  N1  U   B  47       7.645   2.883  14.002  0.00  0.00    +0.000 N 
ATOM    202  C2  U   B  47       6.318   2.653  13.672  0.00  0.00    +0.000 A 
ATOM    203  O2  U   B  47       5.440   3.478  13.849  0.00  0.00    +0.000 OA
ATOM    204  N3  U   B  47       6.056   1.417  13.123  0.00  0.00    +0.000 N 
ATOM    205  C4  U   B  47       6.966   0.408  12.879  0.00  0.00    +0.000 A 
ATOM    206  O4  U   B  47       6.576  -0.649  12.380  0.00  0.00    +0.000 OA
ATOM    207  C5  U   B  47       8.315   0.721  13.250  0.00  0.00    +0.000 A 
ATOM    208  C6  U   B  47       8.601   1.917  13.786  0.00  0.00    +0.000 A 
ATOM    209  H   U   B  47       5.120   1.234  12.879  0.00  0.00    +0.000 HD
ENDBRANCH 200 201
BRANCH 199 210
ATOM    210  O2' U   B  47       7.228   5.560  16.426  0.00  0.00    +0.000 OA
ATOM    211  H   U   B  47       7.900   6.201  16.147  0.00  0.00    +0.000 HD
ENDBRANCH 199 210
BRANCH 198 212
ATOM    212  O3' U   B  47       9.133   4.354  18.054  0.00  0.00    +0.000 OA
BRANCH 212 213
ATOM    213  P   A   B  48       8.720   3.360  19.262  0.00  0.00    +0.000 P 
ATOM    214  OP2 A   B  48       9.151   1.979  18.908  0.00  0.00    +0.000 OA
BRANCH 213 215
ATOM    215  OP1 A   B  48       9.192   3.969  20.532  0.00  0.00    +0.000 OA
ATOM    216  H   A   B  48      10.162   3.955  20.556  0.00  0.00    +0.000 HD
ENDBRANCH 213 215
BRANCH 213 217
ATOM    217  O5' A   B  48       7.123   3.394  19.245  0.00  0.00    +0.000 OA
BRANCH 217 218
ATOM    218  C5' A   B  48       6.416   4.586  19.579  0.00  0.00    +0.000 C 
BRANCH 218 219
ATOM    219  C4' A   B  48       4.938   4.439  19.301  0.00  0.00    +0.000 C 
ATOM    220  O4' A   B  48       4.722   4.186  17.886  0.00  0.00    +0.000 OA
ATOM    221  C3' A   B  48       4.245   3.276  19.989  0.00  0.00    +0.000 C 
ATOM    222  C2' A   B  48       3.022   3.069  19.106  0.00  0.00    +0.000 C 
ATOM    223  C1' A   B  48       3.605   3.336  17.715  0.00  0.00    +0.000 C 
BRANCH 223 224
ATOM    224  N9  A   B  48       4.052   2.102  17.053  0.00  0.00    +0.000 N 
ATOM    225  C8  A   B  48       5.327   1.598  16.963  0.00  0.00    +0.000 A 
ATOM    226  N7  A   B  48       5.403   0.471  16.294  0.00  0.00    +0.000 NA
ATOM    227  C5  A   B  48       4.091   0.213  15.923  0.00  0.00    +0.000 A 
ATOM    228  C6  A   B  48       3.500  -0.834  15.195  0.00  0.00    +0.000 A 
ATOM    229  N1  A   B  48       2.167  -0.793  15.004  0.00  0.00    +0.000 NA
ATOM    230  C2  A   B  48       1.476   0.233  15.514  0.00  0.00    +0.000 A 
ATOM    231  N3  A   B  48       1.917   1.279  16.213  0.00  0.00    +0.000 NA
ATOM    232  C4  A   B  48       3.248   1.207  16.385  0.00  0.00    +0.000 A 
BRANCH 228 233
ATOM    233  N6  A   B  48       4.190  -1.866  14.685  0.00  0.00    +0.000 N 
ATOM    234  H   A   B  48       3.721  -2.571  14.183  0.00  0.00    +0.000 HD
ATOM    235  H   A   B  48       5.165  -1.918  14.813  0.00  0.00    +0.000 HD
ENDBRANCH 228 233
ENDBRANCH 223 224
BRANCH 222 236
ATOM    236  O2' A   B  48       2.014   4.025  19.377  0.00  0.00    +0.000 OA
ATOM    237  H   A   B  48       2.378   4.918  19.271  0.00  0.00    +0.000 HD
ENDBRANCH 222 236
BRANCH 221 238
ATOM    238  O3' A   B  48       3.916   3.555  21.346  0.00  0.00    +0.000 OA
BRANCH 238 239
ATOM    239  P   U   B  49       3.875   2.365  22.445  0.00  0.00    +0.000 P 
ATOM    240  OP2 U   B  49       5.003   1.438  22.170  0.00  0.00    +0.000 OA
BRANCH 239 241
ATOM    241  OP1 U   B  49       3.754   2.991  23.785  0.00  0.00    +0.000 OA
ATOM    242  H   U   B  49       2.972   3.565  23.804  0.00  0.00    +0.000 HD
ENDBRANCH 239 241
BRANCH 239 243
ATOM    243  O5' U   B  49       2.514   1.594  22.122  0.00  0.00    +0.000 OA
BRANCH 243 244
ATOM    244  C5' U   B  49       1.251   2.227  22.304  0.00  0.00    +0.000 C 
BRANCH 244 245
ATOM    245  C4' U   B  49       0.137   1.420  21.682  0.00  0.00    +0.000 C 
ATOM    246  O4' U   B  49       0.363   1.279  20.250  0.00  0.00    +0.000 OA
ATOM    247  C3' U   B  49      -0.002  -0.009  22.168  0.00  0.00    +0.000 C 
ATOM    248  C2' U   B  49      -0.771  -0.654  21.023  0.00  0.00    +0.000 C 
ATOM    249  C1' U   B  49      -0.131   0.029  19.810  0.00  0.00    +0.000 C 
BRANCH 249 250
ATOM    250  N1  U   B  49       0.988  -0.767  19.253  0.00  0.00    +0.000 N 
ATOM    251  C2  U   B  49       0.666  -1.808  18.399  0.00  0.00    +0.000 A 
ATOM    252  O2  U   B  49      -0.481  -2.084  18.097  0.00  0.00    +0.000 OA
ATOM    253  N3  U   B  49       1.741  -2.514  17.909  0.00  0.00    +0.000 N 
ATOM    254  C4  U   B  49       3.076  -2.293  18.184  0.00  0.00    +0.000 A 
ATOM    255  O4  U   B  49       3.929  -3.016  17.666  0.00  0.00    +0.000 OA
ATOM    256  C5  U   B  49       3.325  -1.202  19.077  0.00  0.00    +0.000 A 
ATOM    257  C6  U   B  49       2.297  -0.494  19.570  0.00  0.00    +0.000 A 
ATOM    258  H   U   B  49       1.536  -3.257  17.296  0.00  0.00    +0.000 HD
ENDBRANCH 249 250
BRANCH 248 259
ATOM    259  O2' U   B  49      -2.146  -0.330  21.064  0.00  0.00    +0.000 OA
ATOM    260  H   U   B  49      -2.251   0.634  21.057  0.00  0.00    +0.000 HD
ENDBRANCH 248 259
BRANCH 247 261
ATOM    261  O3' U   B  49      -0.669  -0.111  23.420  0.00  0.00    +0.000 OA
BRANCH 261 262
ATOM    262  P   U   B  50      -0.329  -1.334  24.433  0.00  0.00    +0.000 P 
ATOM    263  OP2 U   B  50       1.144  -1.537  24.440  0.00  0.00    +0.000 OA
BRANCH 262 264
ATOM    264  OP1 U   B  50      -1.040  -1.079  25.709  0.00  0.00    +0.000 OA
ATOM    265  H   U   B  50      -1.988  -0.969  25.535  0.00  0.00    +0.000 HD
ENDBRANCH 262 264
BRANCH 262 266
ATOM    266  O5' U   B  50      -0.996  -2.604  23.732  0.00  0.00    +0.000 OA
BRANCH 266 267
ATOM    267  C5' U   B  50      -2.410  -2.708  23.591  0.00  0.00    +0.000 C 
BRANCH 267 268
ATOM    268  C4' U   B  50      -2.792  -3.839  22.666  0.00  0.00    +0.000 C 
ATOM    269  O4' U   B  50      -2.192  -3.635  21.356  0.00  0.00    +0.000 OA
ATOM    270  C3' U   B  50      -2.321  -5.221  23.073  0.00  0.00    +0.000 C 
ATOM    271  C2' U   B  50      -2.371  -5.971  21.749  0.00  0.00    +0.000 C 
ATOM    272  C1' U   B  50      -1.891  -4.891  20.773  0.00  0.00    +0.000 C 
BRANCH 272 273
ATOM    273  N1  U   B  50      -0.431  -4.974  20.526  0.00  0.00    +0.000 N 
ATOM    274  C2  U   B  50       0.008  -5.921  19.619  0.00  0.00    +0.000 A 
ATOM    275  O2  U   B  50      -0.746  -6.672  19.028  0.00  0.00    +0.000 OA
ATOM    276  N3  U   B  50       1.371  -5.956  19.425  0.00  0.00    +0.000 N 
ATOM    277  C4  U   B  50       2.319  -5.162  20.035  0.00  0.00    +0.000 A 
ATOM    278  O4  U   B  50       3.508  -5.315  19.757  0.00  0.00    +0.000 OA
ATOM    279  C5  U   B  50       1.785  -4.210  20.962  0.00  0.00    +0.000 A 
ATOM    280  C6  U   B  50       0.462  -4.149  21.171  0.00  0.00    +0.000 A 
ATOM    281  H   U   B  50       1.705  -6.621  18.780  0.00  0.00    +0.000 HD
ENDBRANCH 272 273
BRANCH 271 282
ATOM    282  O2' U   B  50      -3.693  -6.346  21.407  0.00  0.00    +0.000 OA
ATOM    283  H   U   B  50      -4.257  -5.557  21.385  0.00  0.00    +0.000 HD
ENDBRANCH 271 282
BRANCH 270 284
ATOM    284  O3' U   B  50      -3.132  -5.810  24.081  0.00  0.00    +0.000 OA
BRANCH 284 285
ATOM    285  P   U   B  51      -2.508  -6.897  25.108  0.00  0.00    +0.000 P 
ATOM    286  OP2 U   B  51      -1.155  -6.436  25.512  0.00  0.00    +0.000 OA
BRANCH 285 287
ATOM    287  OP1 U   B  51      -3.529  -7.177  26.148  0.00  0.00    +0.000 OA
ATOM    288  H   U   B  51      -4.352  -7.466  25.724  0.00  0.00    +0.000 HD
ENDBRANCH 285 287
BRANCH 285 289
ATOM    289  O5' U   B  51      -2.335  -8.205  24.210  0.00  0.00    +0.000 OA
BRANCH 289 290
ATOM    290  C5' U   B  51      -3.463  -8.882  23.667  0.00  0.00    +0.000 C 
BRANCH 290 291
ATOM    291  C4' U   B  51      -3.050  -9.928  22.659  0.00  0.00    +0.000 C 
ATOM    292  O4' U   B  51      -2.307  -9.305  21.571  0.00  0.00    +0.000 OA
ATOM    293  C3' U   B  51      -2.114 -11.007  23.168  0.00  0.00    +0.000 C 
ATOM    294  C2' U   B  51      -1.481 -11.513  21.877  0.00  0.00    +0.000 C 
ATOM    295  C1' U   B  51      -1.331 -10.210  21.084  0.00  0.00    +0.000 C 
BRANCH 295 296
ATOM    296  N1  U   B  51       0.012  -9.603  21.245  0.00  0.00    +0.000 N 
ATOM    297  C2  U   B  51       1.046 -10.133  20.491  0.00  0.00    +0.000 A 
ATOM    298  O2  U   B  51       0.893 -11.062  19.718  0.00  0.00    +0.000 OA
ATOM    299  N3  U   B  51       2.271  -9.531  20.673  0.00  0.00    +0.000 N 
ATOM    300  C4  U   B  51       2.562  -8.482  21.517  0.00  0.00    +0.000 A 
ATOM    301  O4  U   B  51       3.715  -8.051  21.574  0.00  0.00    +0.000 OA
ATOM    302  C5  U   B  51       1.443  -7.993  22.265  0.00  0.00    +0.000 A 
ATOM    303  C6  U   B  51       0.237  -8.555  22.107  0.00  0.00    +0.000 A 
ATOM    304  H   U   B  51       3.019  -9.889  20.143  0.00  0.00    +0.000 HD
ENDBRANCH 295 296
BRANCH 294 305
ATOM    305  O2' U   B  51      -2.350 -12.382  21.173  0.00  0.00    +0.000 OA
ATOM    306  H   U   B  51      -3.190 -11.928  20.999  0.00  0.00    +0.000 HD
ENDBRANCH 294 305
BRANCH 293 307
ATOM    307  O3' U   B  51      -2.794 -12.022  23.894  0.00  0.00    +0.000 OA
BRANCH 307 308
ATOM    308  P   U   B  52      -2.034 -12.857  25.065  0.00  0.00    +0.000 P 
ATOM    309  OP1 U   B  52      -3.047 -13.673  25.775  0.00  0.00    +0.000 OA
BRANCH 308 310
ATOM    310  OP2 U   B  52      -1.182 -11.912  25.830  0.00  0.00    +0.000 OA
ATOM    311  H   U   B  52      -0.576 -11.459  25.223  0.00  0.00    +0.000 HD
ENDBRANCH 308 310
BRANCH 308 312
ATOM    312  O5' U   B  52      -1.073 -13.843  24.254  0.00  0.00    +0.000 OA
BRANCH 312 313
ATOM    313  C5' U   B  52      -1.602 -14.868  23.420  0.00  0.00    +0.000 C 
BRANCH 313 314
ATOM    314  C4' U   B  52      -0.525 -15.498  22.568  0.00  0.00    +0.000 C 
ATOM    315  O4' U   B  52       0.084 -14.493  21.709  0.00  0.00    +0.000 OA
ATOM    316  C3' U   B  52       0.650 -16.094  23.319  0.00  0.00    +0.000 C 
ATOM    317  C2' U   B  52       1.730 -16.116  22.244  0.00  0.00    +0.000 C 
ATOM    318  C1' U   B  52       1.451 -14.801  21.508  0.00  0.00    +0.000 C 
BRANCH 318 319
ATOM    319  N1  U   B  52       2.277 -13.681  22.020  0.00  0.00    +0.000 N 
ATOM    320  C2  U   B  52       3.581 -13.593  21.565  0.00  0.00    +0.000 A 
ATOM    321  O2  U   B  52       4.063 -14.386  20.775  0.00  0.00    +0.000 OA
ATOM    322  N3  U   B  52       4.304 -12.534  22.067  0.00  0.00    +0.000 N 
ATOM    323  C4  U   B  52       3.869 -11.579  22.962  0.00  0.00    +0.000 A 
ATOM    324  O4  U   B  52       4.639 -10.688  23.323  0.00  0.00    +0.000 OA
ATOM    325  C5  U   B  52       2.512 -11.743  23.389  0.00  0.00    +0.000 A 
ATOM    326  C6  U   B  52       1.782 -12.762  22.916  0.00  0.00    +0.000 A 
ATOM    327  H   U   B  52       5.233 -12.449  21.753  0.00  0.00    +0.000 HD
ENDBRANCH 318 319
BRANCH 317 328
ATOM    328  O2' U   B  52       1.552 -17.194  21.346  0.00  0.00    +0.000 OA
ATOM    329  H   U   B  52       0.666 -17.145  20.954  0.00  0.00    +0.000 HD
ENDBRANCH 317 328
BRANCH 316 330
ATOM    330  O3' U   B  52       0.361 -17.378  23.853  0.00  0.00    +0.000 OA
BRANCH 330 331
ATOM    331  P   A   B  53       1.101 -17.898  25.200  0.00  0.00    +0.000 P 
ATOM    332  OP1 A   B  53       0.458 -19.161  25.623  0.00  0.00    +0.000 OA
BRANCH 331 333
ATOM    333  OP2 A   B  53       1.187 -16.762  26.156  0.00  0.00    +0.000 OA
ATOM    334  H   A   B  53       1.633 -16.014  25.729  0.00  0.00    +0.000 HD
ENDBRANCH 331 333
BRANCH 331 335
ATOM    335  O5' A   B  53       2.581 -18.228  24.698  0.00  0.00    +0.000 OA
BRANCH 335 336
ATOM    336  C5' A   B  53       2.822 -19.295  23.787  0.00  0.00    +0.000 C 
BRANCH 336 337
ATOM    337  C4' A   B  53       4.249 -19.277  23.290  0.00  0.00    +0.000 C 
ATOM    338  O4' A   B  53       4.512 -18.034  22.585  0.00  0.00    +0.000 OA
ATOM    339  C3' A   B  53       5.321 -19.323  24.365  0.00  0.00    +0.000 C 
ATOM    340  C2' A   B  53       6.522 -18.737  23.634  0.00  0.00    +0.000 C 
ATOM    341  C1' A   B  53       5.857 -17.644  22.791  0.00  0.00    +0.000 C 
BRANCH 341 342
ATOM    342  N9  A   B  53       5.870 -16.334  23.460  0.00  0.00    +0.000 N 
ATOM    343  C8  A   B  53       4.850 -15.715  24.136  0.00  0.00    +0.000 A 
ATOM    344  N7  A   B  53       5.176 -14.538  24.619  0.00  0.00    +0.000 NA
ATOM    345  C5  A   B  53       6.501 -14.373  24.239  0.00  0.00    +0.000 A 
ATOM    346  C6  A   B  53       7.425 -13.335  24.442  0.00  0.00    +0.000 A 
ATOM    347  N6  A   B  53       7.138 -12.210  25.116  0.00  0.00    +0.000 N 
ATOM    348  N1  A   B  53       8.664 -13.484  23.933  0.00  0.00    +0.000 NA
ATOM    349  C2  A   B  53       8.952 -14.608  23.263  0.00  0.00    +0.000 A 
ATOM    350  N3  A   B  53       8.167 -15.655  23.002  0.00  0.00    +0.000 NA
ATOM    351  C4  A   B  53       6.940 -15.472  23.525  0.00  0.00    +0.000 A 
ATOM    352  H   A   B  53       7.826 -11.514  25.228  0.00  0.00    +0.000 HD
ATOM    353  H   A   B  53       6.240 -12.081  25.498  0.00  0.00    +0.000 HD
ENDBRANCH 341 342
BRANCH 340 354
ATOM    354  O2' A   B  53       7.126 -19.686  22.772  0.00  0.00    +0.000 OA
ATOM    355  H   A   B  53       6.464 -20.023  22.147  0.00  0.00    +0.000 HD
ENDBRANCH 340 354
BRANCH 339 356
ATOM    356  O3' A   B  53       5.548 -20.639  24.853  0.00  0.00    +0.000 OA
BRANCH 356 357
ATOM    357  P   A   B  54       6.038 -20.883  26.384  0.00  0.00    +0.000 P 
ATOM    358  OP1 A   B  54       5.942 -22.332  26.673  0.00  0.00    +0.000 OA
BRANCH 357 359
ATOM    359  OP2 A   B  54       5.337 -19.910  27.267  0.00  0.00    +0.000 OA
ATOM    360  H   A   B  54       5.497 -19.009  26.946  0.00  0.00    +0.000 HD
ENDBRANCH 357 359
BRANCH 357 361
ATOM    361  O5' A   B  54       7.581 -20.483  26.341  0.00  0.00    +0.000 OA
BRANCH 361 362
ATOM    362  C5' A   B  54       8.515 -21.249  25.588  0.00  0.00    +0.000 C 
BRANCH 362 363
ATOM    363  C4' A   B  54       9.852 -20.554  25.506  0.00  0.00    +0.000 C 
ATOM    364  O4' A   B  54       9.702 -19.275  24.833  0.00  0.00    +0.000 OA
ATOM    365  C3' A   B  54      10.493 -20.193  26.835  0.00  0.00    +0.000 C 
ATOM    366  C2' A   B  54      11.444 -19.079  26.431  0.00  0.00    +0.000 C 
ATOM    367  C1' A   B  54      10.605 -18.334  25.386  0.00  0.00    +0.000 C 
BRANCH 367 368
ATOM    368  N9  A   B  54       9.833 -17.233  25.982  0.00  0.00    +0.000 N 
ATOM    369  C8  A   B  54       8.511 -17.221  26.347  0.00  0.00    +0.000 A 
ATOM    370  N7  A   B  54       8.115 -16.076  26.854  0.00  0.00    +0.000 NA
ATOM    371  C5  A   B  54       9.255 -15.282  26.823  0.00  0.00    +0.000 A 
ATOM    372  C6  A   B  54       9.500 -13.958  27.220  0.00  0.00    +0.000 A 
ATOM    373  N6  A   B  54       8.562 -13.162  27.757  0.00  0.00    +0.000 N 
ATOM    374  N1  A   B  54      10.745 -13.469  27.056  0.00  0.00    +0.000 NA
ATOM    375  C2  A   B  54      11.680 -14.264  26.524  0.00  0.00    +0.000 A 
ATOM    376  N3  A   B  54      11.575 -15.528  26.107  0.00  0.00    +0.000 NA
ATOM    377  C4  A   B  54      10.320 -15.985  26.288  0.00  0.00    +0.000 A 
ATOM    378  H   A   B  54       7.646 -13.499  27.886  0.00  0.00    +0.000 HD
ATOM    379  H   A   B  54       8.790 -12.242  28.022  0.00  0.00    +0.000 HD
ENDBRANCH 367 368
BRANCH 366 380
ATOM    380  O2' A   B  54      12.612 -19.584  25.815  0.00  0.00    +0.000 OA
ATOM    381  H   A   B  54      12.365 -20.129  25.052  0.00  0.00    +0.000 HD
ENDBRANCH 366 380
BRANCH 365 382
ATOM    382  O3' A   B  54      11.143 -21.294  27.453  0.00  0.00    +0.000 OA
BRANCH 382 383
ATOM    383  P   A   B  55      11.218 -21.416  29.069  0.00  0.00    +0.000 P 
ATOM    384  OP1 A   B  55      11.785 -22.742  29.411  0.00  0.00    +0.000 OA
BRANCH 383 385
ATOM    385  OP2 A   B  55       9.901 -21.013  29.637  0.00  0.00    +0.000 OA
ATOM    386  H   A   B  55       9.233 -21.678  29.407  0.00  0.00    +0.000 HD
ENDBRANCH 383 385
BRANCH 383 387
ATOM    387  O5' A   B  55      12.284 -20.298  29.470  0.00  0.00    +0.000 OA
BRANCH 387 388
ATOM    388  C5' A   B  55      13.649 -20.420  29.073  0.00  0.00    +0.000 C 
BRANCH 388 389
ATOM    389  C4' A   B  55      14.411 -19.148  29.350  0.00  0.00    +0.000 C 
ATOM    390  O4' A   B  55      13.819 -18.047  28.608  0.00  0.00    +0.000 OA
ATOM    391  C3' A   B  55      14.398 -18.663  30.788  0.00  0.00    +0.000 C 
ATOM    392  C2' A   B  55      14.735 -17.189  30.622  0.00  0.00    +0.000 C 
ATOM    393  C1' A   B  55      13.956 -16.847  29.349  0.00  0.00    +0.000 C 
BRANCH 393 394
ATOM    394  N9  A   B  55      12.619 -16.314  29.648  0.00  0.00    +0.000 N 
ATOM    395  C8  A   B  55      11.410 -16.960  29.605  0.00  0.00    +0.000 A 
ATOM    396  N7  A   B  55      10.393 -16.198  29.935  0.00  0.00    +0.000 NA
ATOM    397  C5  A   B  55      10.973 -14.968  30.217  0.00  0.00    +0.000 A 
ATOM    398  C6  A   B  55      10.437 -13.736  30.627  0.00  0.00    +0.000 A 
ATOM    399  N6  A   B  55       9.127 -13.533  30.837  0.00  0.00    +0.000 N 
ATOM    400  N1  A   B  55      11.290 -12.710  30.822  0.00  0.00    +0.000 NA
ATOM    401  C2  A   B  55      12.598 -12.913  30.616  0.00  0.00    +0.000 A 
ATOM    402  N3  A   B  55      13.223 -14.023  30.228  0.00  0.00    +0.000 NA
ATOM    403  C4  A   B  55      12.343 -15.027  30.045  0.00  0.00    +0.000 A 
ATOM    404  H   A   B  55       8.487 -14.268  30.701  0.00  0.00    +0.000 HD
ATOM    405  H   A   B  55       8.806 -12.649  31.127  0.00  0.00    +0.000 HD
ENDBRANCH 393 394
BRANCH 392 406
ATOM    406  O2' A   B  55      16.117 -16.991  30.392  0.00  0.00    +0.000 OA
ATOM    407  H   A   B  55      16.393 -17.505  29.617  0.00  0.00    +0.000 HD
ENDBRANCH 392 406
BRANCH 391 408
ATOM    408  O3' A   B  55      15.315 -19.361  31.617  0.00  0.00    +0.000 OA
BRANCH 408 409
ATOM    409  P   A   B  56      14.994 -19.606  33.187  0.00  0.00    +0.000 P 
ATOM    410  OP2 A   B  56      13.562 -19.992  33.325  0.00  0.00    +0.000 OA
BRANCH 409 411
ATOM    411  OP1 A   B  56      16.047 -20.490  33.741  0.00  0.00    +0.000 OA
ATOM    412  H   A   B  56      15.955 -21.379  33.363  0.00  0.00    +0.000 HD
ENDBRANCH 409 411
BRANCH 409 413
ATOM    413  O5' A   B  56      15.171 -18.156  33.826  0.00  0.00    +0.000 OA
BRANCH 413 414
ATOM    414  C5' A   B  56      16.448 -17.525  33.848  0.00  0.00    +0.000 C 
BRANCH 414 415
ATOM    415  C4' A   B  56      16.340 -16.091  34.314  0.00  0.00    +0.000 C 
ATOM    416  O4' A   B  56      15.470 -15.343  33.418  0.00  0.00    +0.000 OA
ATOM    417  C3' A   B  56      15.715 -15.880  35.681  0.00  0.00    +0.000 C 
ATOM    418  C2' A   B  56      15.271 -14.423  35.598  0.00  0.00    +0.000 C 
ATOM    419  C1' A   B  56      14.797 -14.331  34.145  0.00  0.00    +0.000 C 
BRANCH 419 420
ATOM    420  N9  A   B  56      13.345 -14.534  34.019  0.00  0.00    +0.000 N 
ATOM    421  C8  A   B  56      12.667 -15.670  33.650  0.00  0.00    +0.000 A 
ATOM    422  N7  A   B  56      11.361 -15.521  33.635  0.00  0.00    +0.000 NA
ATOM    423  C5  A   B  56      11.171 -14.200  34.021  0.00  0.00    +0.000 A 
ATOM    424  C6  A   B  56      10.015 -13.420  34.202  0.00  0.00    +0.000 A 
ATOM    425  N1  A   B  56      10.175 -12.139  34.591  0.00  0.00    +0.000 NA
ATOM    426  C2  A   B  56      11.414 -11.674  34.789  0.00  0.00    +0.000 A 
ATOM    427  N3  A   B  56      12.579 -12.308  34.651  0.00  0.00    +0.000 NA
ATOM    428  C4  A   B  56      12.382 -13.583  34.261  0.00  0.00    +0.000 A 
BRANCH 424 429
ATOM    429  N6  A   B  56       8.770 -13.883  34.009  0.00  0.00    +0.000 N 
ATOM    430  H   A   B  56       8.630 -14.815  33.725  0.00  0.00    +0.000 HD
ATOM    431  H   A   B  56       7.997 -13.290  34.152  0.00  0.00    +0.000 HD
ENDBRANCH 424 429
ENDBRANCH 419 420
BRANCH 418 432
ATOM    432  O2' A   B  56      16.354 -13.533  35.792  0.00  0.00    +0.000 OA
ATOM    433  H   A   B  56      17.050 -13.724  35.144  0.00  0.00    +0.000 HD
ENDBRANCH 418 432
BRANCH 417 434
ATOM    434  O3' A   B  56      16.628 -16.129  36.741  0.00  0.00    +0.000 OA
BRANCH 434 435
ATOM    435  P   A   B  57      16.098 -16.660  38.182  0.00  0.00    +0.000 P 
ATOM    436  OP2 A   B  57      15.006 -17.651  37.959  0.00  0.00    +0.000 OA
BRANCH 435 437
ATOM    437  OP1 A   B  57      17.282 -17.047  38.987  0.00  0.00    +0.000 OA
ATOM    438  H   A   B  57      17.690 -17.838  38.602  0.00  0.00    +0.000 HD
ENDBRANCH 435 437
BRANCH 435 439
ATOM    439  O5' A   B  57      15.448 -15.358  38.837  0.00  0.00    +0.000 OA
BRANCH 439 440
ATOM    440  C5' A   B  57      16.254 -14.247  39.198  0.00  0.00    +0.000 C 
BRANCH 440 441
ATOM    441  C4' A   B  57      15.419 -13.137  39.791  0.00  0.00    +0.000 C 
ATOM    442  O4' A   B  57      14.519 -12.610  38.772  0.00  0.00    +0.000 OA
ATOM    443  C3' A   B  57      14.495 -13.542  40.923  0.00  0.00    +0.000 C 
ATOM    444  C2' A   B  57      13.429 -12.446  40.878  0.00  0.00    +0.000 C 
ATOM    445  C1' A   B  57      13.315 -12.180  39.372  0.00  0.00    +0.000 C 
BRANCH 445 446
ATOM    446  N9  A   B  57      12.193 -12.899  38.751  0.00  0.00    +0.000 N 
ATOM    447  C8  A   B  57      12.175 -14.176  38.249  0.00  0.00    +0.000 A 
ATOM    448  N7  A   B  57      11.010 -14.533  37.756  0.00  0.00    +0.000 NA
ATOM    449  C5  A   B  57      10.209 -13.411  37.950  0.00  0.00    +0.000 A 
ATOM    450  C6  A   B  57       8.862 -13.146  37.644  0.00  0.00    +0.000 A 
ATOM    451  N1  A   B  57       8.372 -11.932  37.968  0.00  0.00    +0.000 NA
ATOM    452  C2  A   B  57       9.185 -11.046  38.557  0.00  0.00    +0.000 A 
ATOM    453  N3  A   B  57      10.466 -11.179  38.894  0.00  0.00    +0.000 NA
ATOM    454  C4  A   B  57      10.924 -12.402  38.559  0.00  0.00    +0.000 A 
BRANCH 450 455
ATOM    455  N6  A   B  57       8.043 -14.035  37.059  0.00  0.00    +0.000 N 
ATOM    456  H   A   B  57       8.379 -14.927  36.814  0.00  0.00    +0.000 HD
ATOM    457  H   A   B  57       7.106 -13.795  36.875  0.00  0.00    +0.000 HD
ENDBRANCH 450 455
ENDBRANCH 445 446
BRANCH 444 458
ATOM    458  O2' A   B  57      13.863 -11.267  41.536  0.00  0.00    +0.000 OA
ATOM    459  H   A   B  57      14.694 -10.962  41.139  0.00  0.00    +0.000 HD
ENDBRANCH 444 458
BRANCH 443 460
ATOM    460  O3' A   B  57      15.164 -13.604  42.182  0.00  0.00    +0.000 OA
BRANCH 460 461
ATOM    461  P   C   B  58      15.837 -14.981  42.678  0.00  0.00    +0.000 P 
ATOM    462  OP1 C   B  58      17.230 -14.990  42.139  0.00  0.00    +0.000 OA
BRANCH 461 463
ATOM    463  OP2 C   B  58      14.923 -16.094  42.349  0.00  0.00    +0.000 OA
ATOM    464  H   C   B  58      14.854 -16.182  41.385  0.00  0.00    +0.000 HD
ENDBRANCH 461 463
BRANCH 461 465
ATOM    465  O5' C   B  58      15.922 -14.871  44.265  0.00  0.00    +0.000 OA
BRANCH 465 466
ATOM    466  C5' C   B  58      14.927 -15.440  45.097  0.00  0.00    +0.000 C 
BRANCH 466 467
ATOM    467  C4' C   B  58      14.577 -14.536  46.262  0.00  0.00    +0.000 C 
ATOM    468  O4' C   B  58      15.728 -14.408  47.141  0.00  0.00    +0.000 OA
ATOM    469  C3' C   B  58      14.173 -13.118  45.876  0.00  0.00    +0.000 C 
ATOM    470  C2' C   B  58      15.454 -12.322  46.112  0.00  0.00    +0.000 C 
ATOM    471  C1' C   B  58      16.040 -13.040  47.326  0.00  0.00    +0.000 C 
BRANCH 471 472
ATOM    472  N1  C   B  58      17.503 -12.899  47.451  0.00  0.00    +0.000 N 
ATOM    473  C2  C   B  58      18.017 -12.027  48.417  0.00  0.00    +0.000 A 
ATOM    474  O2  C   B  58      17.234 -11.386  49.137  0.00  0.00    +0.000 OA
ATOM    475  N3  C   B  58      19.368 -11.894  48.535  0.00  0.00    +0.000 NA
ATOM    476  C4  C   B  58      20.180 -12.595  47.744  0.00  0.00    +0.000 A 
ATOM    477  N4  C   B  58      21.493 -12.436  47.895  0.00  0.00    +0.000 N 
ATOM    478  C5  C   B  58      19.677 -13.488  46.756  0.00  0.00    +0.000 A 
ATOM    479  C6  C   B  58      18.342 -13.605  46.644  0.00  0.00    +0.000 A 
ATOM    480  H   C   B  58      22.119 -12.940  47.326  0.00  0.00    +0.000 HD
ATOM    481  H   C   B  58      21.839 -11.815  48.576  0.00  0.00    +0.000 HD
ENDBRANCH 471 472
BRANCH 470 482
ATOM    482  O2' C   B  58      15.261 -10.952  46.372  0.00  0.00    +0.000 OA
ATOM    483  H   C   B  58      14.698 -10.848  47.155  0.00  0.00    +0.000 HD
ENDBRANCH 470 482
BRANCH 469 484
ATOM    484  O3' C   B  58      13.153 -12.650  46.756  0.00  0.00    +0.000 OA
BRANCH 484 485
ATOM    485  P   A   B  59      11.628 -12.759  46.356  0.00  0.00    +0.000 P 
ATOM    486  OP2 A   B  59      11.395 -14.043  45.632  0.00  0.00    +0.000 OA
BRANCH 485 487
ATOM    487  OP1 A   B  59      10.802 -12.441  47.552  0.00  0.00    +0.000 OA
ATOM    488  H   A   B  59       9.862 -12.504  47.322  0.00  0.00    +0.000 HD
ENDBRANCH 485 487
BRANCH 485 489
ATOM    489  O5' A   B  59      11.480 -11.576  45.292  0.00  0.00    +0.000 OA
BRANCH 489 490
ATOM    490  C5' A   B  59      11.578 -10.208  45.686  0.00  0.00    +0.000 C 
BRANCH 490 491
ATOM    491  C4' A   B  59      10.390  -9.419  45.199  0.00  0.00    +0.000 C 
ATOM    492  O4' A   B  59      10.283  -9.549  43.757  0.00  0.00    +0.000 OA
ATOM    493  C3' A   B  59       9.037  -9.901  45.720  0.00  0.00    +0.000 C 
ATOM    494  C2' A   B  59       8.080  -9.424  44.640  0.00  0.00    +0.000 C 
ATOM    495  C1' A   B  59       8.917  -9.622  43.372  0.00  0.00    +0.000 C 
BRANCH 495 496
ATOM    496  N9  A   B  59       8.680 -10.920  42.725  0.00  0.00    +0.000 N 
ATOM    497  C8  A   B  59       9.551 -11.973  42.620  0.00  0.00    +0.000 A 
ATOM    498  N7  A   B  59       9.063 -13.004  41.969  0.00  0.00    +0.000 NA
ATOM    499  C5  A   B  59       7.783 -12.598  41.614  0.00  0.00    +0.000 A 
ATOM    500  C6  A   B  59       6.751 -13.239  40.909  0.00  0.00    +0.000 A 
ATOM    501  N1  A   B  59       5.599 -12.563  40.731  0.00  0.00    +0.000 NA
ATOM    502  C2  A   B  59       5.499 -11.320  41.232  0.00  0.00    +0.000 A 
ATOM    503  N3  A   B  59       6.396 -10.614  41.912  0.00  0.00    +0.000 NA
ATOM    504  C4  A   B  59       7.534 -11.322  42.071  0.00  0.00    +0.000 A 
BRANCH 500 505
ATOM    505  N6  A   B  59       6.854 -14.478  40.407  0.00  0.00    +0.000 N 
ATOM    506  H   A   B  59       6.096 -14.877  39.921  0.00  0.00    +0.000 HD
ATOM    507  H   A   B  59       7.687 -14.989  40.524  0.00  0.00    +0.000 HD
ENDBRANCH 500 505
ENDBRANCH 495 496
BRANCH 494 508
ATOM    508  O2' A   B  59       7.773  -8.049  44.787  0.00  0.00    +0.000 OA
ATOM    509  H   A   B  59       8.594  -7.532  44.782  0.00  0.00    +0.000 HD
ENDBRANCH 494 508
BRANCH 493 510
ATOM    510  O3' A   B  59       8.747  -9.357  47.013  0.00  0.00    +0.000 OA
BRANCH 510 511
ATOM    511  P   G   B  60       8.024 -10.244  48.151  0.00  0.00    +0.000 P 
ATOM    512  OP2 G   B  60       8.691 -11.572  48.212  0.00  0.00    +0.000 OA
BRANCH 511 513
ATOM    513  OP1 G   B  60       7.931  -9.417  49.380  0.00  0.00    +0.000 OA
ATOM    514  H   G   B  60       7.472  -8.587  49.177  0.00  0.00    +0.000 HD
ENDBRANCH 511 513
BRANCH 511 515
ATOM    515  O5' G   B  60       6.556 -10.456  47.576  0.00  0.00    +0.000 OA
BRANCH 515 516
ATOM    516  C5' G   B  60       5.670  -9.353  47.443  0.00  0.00    +0.000 C 
BRANCH 516 517
ATOM    517  C4' G   B  60       4.361  -9.775  46.811  0.00  0.00    +0.000 C 
ATOM    518  O4' G   B  60       4.600 -10.244  45.461  0.00  0.00    +0.000 OA
ATOM    519  C3' G   B  60       3.640 -10.931  47.473  0.00  0.00    +0.000 C 
ATOM    520  C2' G   B  60       2.748 -11.443  46.347  0.00  0.00    +0.000 C 
ATOM    521  C1' G   B  60       3.609 -11.185  45.108  0.00  0.00    +0.000 C 
BRANCH 521 522
ATOM    522  N9  G   B  60       4.251 -12.403  44.588  0.00  0.00    +0.000 N 
ATOM    523  C8  G   B  60       5.511 -12.877  44.845  0.00  0.00    +0.000 A 
ATOM    524  N7  G   B  60       5.779 -13.992  44.218  0.00  0.00    +0.000 NA
ATOM    525  C5  G   B  60       4.621 -14.267  43.502  0.00  0.00    +0.000 A 
ATOM    526  C6  G   B  60       4.307 -15.344  42.637  0.00  0.00    +0.000 A 
ATOM    527  O6  G   B  60       5.019 -16.311  42.314  0.00  0.00    +0.000 OA
ATOM    528  N1  G   B  60       3.020 -15.231  42.123  0.00  0.00    +0.000 NA
ATOM    529  C2  G   B  60       2.145 -14.213  42.406  0.00  0.00    +0.000 A 
ATOM    530  N2  G   B  60       0.944 -14.273  41.815  0.00  0.00    +0.000 N 
ATOM    531  N3  G   B  60       2.421 -13.205  43.211  0.00  0.00    +0.000 N 
ATOM    532  C4  G   B  60       3.672 -13.296  43.721  0.00  0.00    +0.000 A 
ATOM    533  H   G   B  60       0.729 -15.021  41.213  0.00  0.00    +0.000 HD
ATOM    534  H   G   B  60       0.277 -13.569  41.983  0.00  0.00    +0.000 HD
ATOM    535  H   G   B  60       1.793 -12.475  43.416  0.00  0.00    +0.000 HD
ENDBRANCH 521 522
BRANCH 520 536
ATOM    536  O2' G   B  60       1.552 -10.684  46.252  0.00  0.00    +0.000 OA
ATOM    537  H   G   B  60       1.772  -9.748  46.128  0.00  0.00    +0.000 HD
ENDBRANCH 520 536
BRANCH 519 538
ATOM    538  O3' G   B  60       2.896 -10.508  48.617  0.00  0.00    +0.000 OA
BRANCH 538 539
ATOM    539  P   A   B  61       3.092 -11.182  50.086  0.00  0.00    +0.000 P 
ATOM    540  OP1 A   B  61       4.450 -11.760  50.162  0.00  0.00    +0.000 OA
BRANCH 539 541
ATOM    541  OP2 A   B  61       1.915 -12.042  50.385  0.00  0.00    +0.000 OA
ATOM    542  H   A   B  61       1.932 -12.824  49.811  0.00  0.00    +0.000 HD
ENDBRANCH 539 541
BRANCH 539 543
ATOM    543  O5' A   B  61       3.022  -9.913  51.051  0.00  0.00    +0.000 OA
BRANCH 543 544
ATOM    544  C5' A   B  61       4.053  -8.928  51.034  0.00  0.00    +0.000 C 
BRANCH 544 545
ATOM    545  C4' A   B  61       3.482  -7.539  50.882  0.00  0.00    +0.000 C 
ATOM    546  O4' A   B  61       2.874  -7.399  49.568  0.00  0.00    +0.000 OA
ATOM    547  C3' A   B  61       2.364  -7.170  51.842  0.00  0.00    +0.000 C 
ATOM    548  C2' A   B  61       1.648  -6.055  51.089  0.00  0.00    +0.000 C 
ATOM    549  C1' A   B  61       1.723  -6.572  49.652  0.00  0.00    +0.000 C 
BRANCH 549 550
ATOM    550  N9  A   B  61       0.546  -7.370  49.285  0.00  0.00    +0.000 N 
ATOM    551  C8  A   B  61       0.509  -8.716  49.017  0.00  0.00    +0.000 A 
ATOM    552  N7  A   B  61      -0.690  -9.164  48.716  0.00  0.00    +0.000 NA
ATOM    553  C5  A   B  61      -1.493  -8.029  48.792  0.00  0.00    +0.000 A 
ATOM    554  C6  A   B  61      -2.871  -7.837  48.585  0.00  0.00    +0.000 A 
ATOM    555  N1  A   B  61      -3.358  -6.589  48.739  0.00  0.00    +0.000 NA
ATOM    556  C2  A   B  61      -2.509  -5.606  49.078  0.00  0.00    +0.000 A 
ATOM    557  N3  A   B  61      -1.202  -5.663  49.299  0.00  0.00    +0.000 NA
ATOM    558  C4  A   B  61      -0.749  -6.921  49.136  0.00  0.00    +0.000 A 
BRANCH 554 559
ATOM    559  N6  A   B  61      -3.715  -8.821  48.252  0.00  0.00    +0.000 N 
ATOM    560  H   A   B  61      -4.671  -8.626  48.120  0.00  0.00    +0.000 HD
ATOM    561  H   A   B  61      -3.380  -9.740  48.139  0.00  0.00    +0.000 HD
ENDBRANCH 554 559
ENDBRANCH 549 550
BRANCH 548 562
ATOM    562  O2' A   B  61       2.336  -4.829  51.186  0.00  0.00    +0.000 OA
ATOM    563  H   A   B  61       3.244  -4.941  50.864  0.00  0.00    +0.000 HD
ENDBRANCH 548 562
BRANCH 547 564
ATOM    564  O3' A   B  61       2.849  -6.766  53.115  0.00  0.00    +0.000 OA
BRANCH 564 565
ATOM    565  P   C   B  62       1.989  -7.035  54.456  0.00  0.00    +0.000 P 
ATOM    566  OP2 C   B  62       1.349  -8.375  54.347  0.00  0.00    +0.000 OA
BRANCH 565 567
ATOM    567  OP1 C   B  62       2.856  -6.733  55.621  0.00  0.00    +0.000 OA
ATOM    568  H   C   B  62       3.567  -7.391  55.674  0.00  0.00    +0.000 HD
ENDBRANCH 565 567
BRANCH 565 569
ATOM    569  O5' C   B  62       0.840  -5.936  54.407  0.00  0.00    +0.000 OA
BRANCH 569 570
ATOM    570  C5' C   B  62       1.145  -4.542  54.411  0.00  0.00    +0.000 C 
BRANCH 570 571
ATOM    571  C4' C   B  62      -0.092  -3.712  54.178  0.00  0.00    +0.000 C 
ATOM    572  O4' C   B  62      -0.694  -4.067  52.903  0.00  0.00    +0.000 OA
ATOM    573  C3' C   B  62      -1.212  -3.910  55.175  0.00  0.00    +0.000 C 
ATOM    574  C2' C   B  62      -2.431  -3.438  54.387  0.00  0.00    +0.000 C 
ATOM    575  C1' C   B  62      -2.106  -3.956  52.988  0.00  0.00    +0.000 C 
BRANCH 575 576
ATOM    576  N1  C   B  62      -2.712  -5.281  52.718  0.00  0.00    +0.000 N 
ATOM    577  C2  C   B  62      -4.077  -5.351  52.419  0.00  0.00    +0.000 A 
ATOM    578  O2  C   B  62      -4.743  -4.306  52.389  0.00  0.00    +0.000 OA
ATOM    579  N3  C   B  62      -4.636  -6.564  52.170  0.00  0.00    +0.000 NA
ATOM    580  C4  C   B  62      -3.892  -7.671  52.208  0.00  0.00    +0.000 A 
ATOM    581  N4  C   B  62      -4.487  -8.838  51.959  0.00  0.00    +0.000 N 
ATOM    582  C5  C   B  62      -2.505  -7.624  52.507  0.00  0.00    +0.000 A 
ATOM    583  C6  C   B  62      -1.960  -6.423  52.753  0.00  0.00    +0.000 A 
ATOM    584  H   C   B  62      -5.449  -8.866  51.752  0.00  0.00    +0.000 HD
ATOM    585  H   C   B  62      -3.964  -9.672  51.982  0.00  0.00    +0.000 HD
ENDBRANCH 575 576
BRANCH 574 586
ATOM    586  O2' C   B  62      -2.519  -2.029  54.352  0.00  0.00    +0.000 OA
ATOM    587  H   C   B  62      -1.700  -1.663  53.982  0.00  0.00    +0.000 HD
ENDBRANCH 574 586
BRANCH 573 588
ATOM    588  O3' C   B  62      -1.004  -3.175  56.377  0.00  0.00    +0.000 OA
BRANCH 588 589
ATOM    589  P   U   B  63      -1.420  -3.810  57.803  0.00  0.00    +0.000 P 
ATOM    590  OP2 U   B  63      -0.910  -5.205  57.858  0.00  0.00    +0.000 OA
BRANCH 589 591
ATOM    591  OP1 U   B  63      -1.033  -2.845  58.860  0.00  0.00    +0.000 OA
ATOM    592  H   U   B  63      -1.446  -1.986  58.680  0.00  0.00    +0.000 HD
ENDBRANCH 589 591
BRANCH 589 593
ATOM    593  O5' U   B  63      -3.013  -3.873  57.739  0.00  0.00    +0.000 OA
BRANCH 593 594
ATOM    594  C5' U   B  63      -3.799  -2.691  57.642  0.00  0.00    +0.000 C 
BRANCH 594 595
ATOM    595  C4' U   B  63      -5.239  -3.015  57.313  0.00  0.00    +0.000 C 
ATOM    596  O4' U   B  63      -5.312  -3.728  56.049  0.00  0.00    +0.000 OA
ATOM    597  C3' U   B  63      -5.946  -3.929  58.288  0.00  0.00    +0.000 C 
ATOM    598  C2' U   B  63      -7.075  -4.500  57.434  0.00  0.00    +0.000 C 
ATOM    599  C1' U   B  63      -6.373  -4.664  56.086  0.00  0.00    +0.000 C 
BRANCH 599 600
ATOM    600  N1  U   B  63      -5.818  -6.028  55.901  0.00  0.00    +0.000 N 
ATOM    601  C2  U   B  63      -6.694  -7.037  55.535  0.00  0.00    +0.000 A 
ATOM    602  O2  U   B  63      -7.886  -6.850  55.364  0.00  0.00    +0.000 OA
ATOM    603  N3  U   B  63      -6.120  -8.279  55.378  0.00  0.00    +0.000 N 
ATOM    604  C4  U   B  63      -4.790  -8.606  55.545  0.00  0.00    +0.000 A 
ATOM    605  O4  U   B  63      -4.427  -9.770  55.371  0.00  0.00    +0.000 OA
ATOM    606  C5  U   B  63      -3.956  -7.512  55.921  0.00  0.00    +0.000 A 
ATOM    607  C6  U   B  63      -4.486  -6.289  56.081  0.00  0.00    +0.000 A 
ATOM    608  H   U   B  63      -6.724  -9.012  55.119  0.00  0.00    +0.000 HD
ENDBRANCH 599 600
BRANCH 598 609
ATOM    609  O2' U   B  63      -8.139  -3.581  57.294  0.00  0.00    +0.000 OA
ATOM    610  H   U   B  63      -7.802  -2.750  56.925  0.00  0.00    +0.000 HD
ENDBRANCH 598 609
BRANCH 597 611
ATOM    611  O3' U   B  63      -6.406  -3.235  59.446  0.00  0.00    +0.000 OA
BRANCH 611 612
ATOM    612  P   A   B  64      -6.490  -3.983  60.880  0.00  0.00    +0.000 P 
ATOM    613  OP2 A   B  64      -5.285  -4.839  61.034  0.00  0.00    +0.000 OA
BRANCH 612 614
ATOM    614  OP1 A   B  64      -6.805  -2.964  61.911  0.00  0.00    +0.000 OA
ATOM    615  H   A   B  64      -7.617  -2.494  61.664  0.00  0.00    +0.000 HD
ENDBRANCH 612 614
BRANCH 612 616
ATOM    616  O5' A   B  64      -7.752  -4.944  60.723  0.00  0.00    +0.000 OA
BRANCH 616 617
ATOM    617  C5' A   B  64      -9.056  -4.410  60.516  0.00  0.00    +0.000 C 
BRANCH 617 618
ATOM    618  C4' A   B  64     -10.052  -5.507  60.230  0.00  0.00    +0.000 C 
ATOM    619  O4' A   B  64      -9.720  -6.159  58.978  0.00  0.00    +0.000 OA
ATOM    620  C3' A   B  64     -10.078  -6.642  61.236  0.00  0.00    +0.000 C 
ATOM    621  C2' A   B  64     -10.663  -7.786  60.422  0.00  0.00    +0.000 C 
ATOM    622  C1' A   B  64     -10.017  -7.542  59.061  0.00  0.00    +0.000 C 
BRANCH 622 623
ATOM    623  N9  A   B  64      -8.768  -8.299  58.888  0.00  0.00    +0.000 N 
ATOM    624  C8  A   B  64      -7.486  -7.835  59.010  0.00  0.00    +0.000 A 
ATOM    625  N7  A   B  64      -6.570  -8.750  58.793  0.00  0.00    +0.000 NA
ATOM    626  C5  A   B  64      -7.302  -9.894  58.509  0.00  0.00    +0.000 A 
ATOM    627  C6  A   B  64      -6.919 -11.208  58.190  0.00  0.00    +0.000 A 
ATOM    628  N1  A   B  64      -7.892 -12.108  57.963  0.00  0.00    +0.000 NA
ATOM    629  C2  A   B  64      -9.165 -11.707  58.051  0.00  0.00    +0.000 A 
ATOM    630  N3  A   B  64      -9.650 -10.505  58.342  0.00  0.00    +0.000 NA
ATOM    631  C4  A   B  64      -8.652  -9.631  58.564  0.00  0.00    +0.000 A 
BRANCH 627 632
ATOM    632  N6  A   B  64      -5.644 -11.609  58.106  0.00  0.00    +0.000 N 
ATOM    633  H   A   B  64      -5.436 -12.544  57.878  0.00  0.00    +0.000 HD
ATOM    634  H   A   B  64      -4.915 -10.969  58.272  0.00  0.00    +0.000 HD
ENDBRANCH 627 632
ENDBRANCH 622 623
BRANCH 621 635
ATOM    635  O2' A   B  64     -12.068  -7.674  60.300  0.00  0.00    +0.000 OA
ATOM    636  H   A   B  64     -12.291  -6.813  59.912  0.00  0.00    +0.000 HD
ENDBRANCH 621 635
BRANCH 620 637
ATOM    637  O3' A   B  64     -10.841  -6.312  62.393  0.00  0.00    +0.000 OA
BRANCH 637 638
ATOM    638  P   C   B  65     -10.389  -6.813  63.854  0.00  0.00    +0.000 P 
ATOM    639  OP2 C   B  65      -8.904  -6.895  63.888  0.00  0.00    +0.000 OA
BRANCH 638 640
ATOM    640  OP1 C   B  65     -11.103  -5.990  64.863  0.00  0.00    +0.000 OA
ATOM    641  H   C   B  65     -10.764  -5.081  64.837  0.00  0.00    +0.000 HD
ENDBRANCH 638 640
BRANCH 638 642
ATOM    642  O5' C   B  65     -10.963  -8.295  63.918  0.00  0.00    +0.000 OA
BRANCH 642 643
ATOM    643  C5' C   B  65     -12.359  -8.546  63.820  0.00  0.00    +0.000 C 
BRANCH 643 644
ATOM    644  C4' C   B  65     -12.637 -10.018  63.643  0.00  0.00    +0.000 C 
ATOM    645  O4' C   B  65     -12.098 -10.471  62.372  0.00  0.00    +0.000 OA
ATOM    646  C3' C   B  65     -11.990 -10.932  64.660  0.00  0.00    +0.000 C 
ATOM    647  C2' C   B  65     -11.974 -12.264  63.918  0.00  0.00    +0.000 C 
ATOM    648  C1' C   B  65     -11.652 -11.809  62.495  0.00  0.00    +0.000 C 
BRANCH 648 649
ATOM    649  N1  C   B  65     -10.203 -11.861  62.196  0.00  0.00    +0.000 N 
ATOM    650  C2  C   B  65      -9.643 -13.076  61.790  0.00  0.00    +0.000 A 
ATOM    651  O2  C   B  65     -10.372 -14.073  61.686  0.00  0.00    +0.000 OA
ATOM    652  N3  C   B  65      -8.315 -13.134  61.513  0.00  0.00    +0.000 NA
ATOM    653  C4  C   B  65      -7.557 -12.045  61.631  0.00  0.00    +0.000 A 
ATOM    654  N4  C   B  65      -6.259 -12.150  61.353  0.00  0.00    +0.000 N 
ATOM    655  C5  C   B  65      -8.103 -10.801  62.045  0.00  0.00    +0.000 A 
ATOM    656  C6  C   B  65      -9.417 -10.753  62.314  0.00  0.00    +0.000 A 
ATOM    657  H   C   B  65      -5.885 -13.015  61.066  0.00  0.00    +0.000 HD
ATOM    658  H   C   B  65      -5.673 -11.363  61.434  0.00  0.00    +0.000 HD
ENDBRANCH 648 649
BRANCH 647 659
ATOM    659  O2' C   B  65     -13.240 -12.886  63.928  0.00  0.00    +0.000 OA
ATOM    660  H   C   B  65     -13.899 -12.283  63.551  0.00  0.00    +0.000 HD
ENDBRANCH 647 659
BRANCH 646 661
ATOM    661  O3' C   B  65     -12.711 -10.974  65.890  0.00  0.00    +0.000 OA
BRANCH 661 662
ATOM    662  P   A   B  66     -11.940 -11.097  67.319  0.00  0.00    +0.000 P 
ATOM    663  OP2 A   B  66     -10.618 -10.422  67.185  0.00  0.00    +0.000 OA
BRANCH 662 664
ATOM    664  OP1 A   B  66     -12.871 -10.681  68.398  0.00  0.00    +0.000 OA
ATOM    665  H   A   B  66     -13.040  -9.728  68.330  0.00  0.00    +0.000 HD
ENDBRANCH 662 664
BRANCH 662 666
ATOM    666  O5' A   B  66     -11.678 -12.661  67.450  0.00  0.00    +0.000 OA
BRANCH 666 667
ATOM    667  C5' A   B  66     -12.761 -13.571  67.611  0.00  0.00    +0.000 C 
BRANCH 667 668
ATOM    668  C4' A   B  66     -12.325 -14.990  67.340  0.00  0.00    +0.000 C 
ATOM    669  O4' A   B  66     -11.835 -15.101  65.981  0.00  0.00    +0.000 OA
ATOM    670  C3' A   B  66     -11.171 -15.504  68.180  0.00  0.00    +0.000 C 
ATOM    671  C2' A   B  66     -10.639 -16.642  67.320  0.00  0.00    +0.000 C 
ATOM    672  C1' A   B  66     -10.785 -16.046  65.926  0.00  0.00    +0.000 C 
BRANCH 672 673
ATOM    673  N9  A   B  66      -9.559 -15.367  65.491  0.00  0.00    +0.000 N 
ATOM    674  C8  A   B  66      -9.277 -14.027  65.527  0.00  0.00    +0.000 A 
ATOM    675  N7  A   B  66      -8.085 -13.726  65.069  0.00  0.00    +0.000 NA
ATOM    676  C5  A   B  66      -7.545 -14.957  64.712  0.00  0.00    +0.000 A 
ATOM    677  C6  A   B  66      -6.306 -15.322  64.160  0.00  0.00    +0.000 A 
ATOM    678  N1  A   B  66      -6.086 -16.628  63.928  0.00  0.00    +0.000 NA
ATOM    679  C2  A   B  66      -7.052 -17.505  64.229  0.00  0.00    +0.000 A 
ATOM    680  N3  A   B  66      -8.255 -17.285  64.747  0.00  0.00    +0.000 NA
ATOM    681  C4  A   B  66      -8.439 -15.969  64.967  0.00  0.00    +0.000 A 
BRANCH 677 682
ATOM    682  N6  A   B  66      -5.342 -14.446  63.865  0.00  0.00    +0.000 N 
ATOM    683  H   A   B  66      -4.493 -14.760  63.479  0.00  0.00    +0.000 HD
ATOM    684  H   A   B  66      -5.481 -13.486  64.033  0.00  0.00    +0.000 HD
ENDBRANCH 677 682
ENDBRANCH 672 673
BRANCH 671 685
ATOM    685  O2' A   B  66     -11.447 -17.796  67.422  0.00  0.00    +0.000 OA
ATOM    686  H   A   B  66     -12.361 -17.572  67.187  0.00  0.00    +0.000 HD
ENDBRANCH 671 685
BRANCH 670 687
ATOM    687  O3' A   B  66     -11.580 -15.918  69.481  0.00  0.00    +0.000 OA
BRANCH 687 688
ATOM    688  P   A   B  67     -10.550 -15.802  70.719  0.00  0.00    +0.000 P 
ATOM    689  OP2 A   B  67      -9.838 -14.497  70.632  0.00  0.00    +0.000 OA
BRANCH 688 690
ATOM    690  OP1 A   B  67     -11.302 -16.145  71.952  0.00  0.00    +0.000 OA
ATOM    691  H   A   B  67     -11.706 -17.021  71.851  0.00  0.00    +0.000 HD
ENDBRANCH 688 690
BRANCH 688 692
ATOM    692  O5' A   B  67      -9.491 -16.956  70.430  0.00  0.00    +0.000 OA
BRANCH 692 693
ATOM    693  C5' A   B  67      -9.891 -18.322  70.416  0.00  0.00    +0.000 C 
BRANCH 693 694
ATOM    694  C4' A   B  67      -8.737 -19.221  70.036  0.00  0.00    +0.000 C 
ATOM    695  O4' A   B  67      -8.308 -18.927  68.685  0.00  0.00    +0.000 OA
ATOM    696  C3' A   B  67      -7.478 -19.056  70.859  0.00  0.00    +0.000 C 
ATOM    697  C2' A   B  67      -6.411 -19.615  69.927  0.00  0.00    +0.000 C 
ATOM    698  C1' A   B  67      -6.910 -19.124  68.571  0.00  0.00    +0.000 C 
BRANCH 698 699
ATOM    699  N9  A   B  67      -6.284 -17.858  68.163  0.00  0.00    +0.000 N 
ATOM    700  C8  A   B  67      -6.793 -16.594  68.272  0.00  0.00    +0.000 A 
ATOM    701  N7  A   B  67      -5.991 -15.661  67.816  0.00  0.00    +0.000 NA
ATOM    702  C5  A   B  67      -4.874 -16.364  67.380  0.00  0.00    +0.000 A 
ATOM    703  C6  A   B  67      -3.668 -15.950  66.789  0.00  0.00    +0.000 A 
ATOM    704  N1  A   B  67      -2.767 -16.898  66.476  0.00  0.00    +0.000 NA
ATOM    705  C2  A   B  67      -3.066 -18.177  66.736  0.00  0.00    +0.000 A 
ATOM    706  N3  A   B  67      -4.165 -18.687  67.285  0.00  0.00    +0.000 NA
ATOM    707  C4  A   B  67      -5.041 -17.711  67.588  0.00  0.00    +0.000 A 
BRANCH 703 708
ATOM    708  N6  A   B  67      -3.368 -14.671  66.530  0.00  0.00    +0.000 N 
ATOM    709  H   A   B  67      -2.506 -14.442  66.114  0.00  0.00    +0.000 HD
ATOM    710  H   A   B  67      -4.010 -13.959  66.756  0.00  0.00    +0.000 HD
ENDBRANCH 703 708
ENDBRANCH 698 699
BRANCH 697 711
ATOM    711  O2' A   B  67      -6.398 -21.029  69.938  0.00  0.00    +0.000 OA
ATOM    712  H   A   B  67      -7.279 -21.362  69.706  0.00  0.00    +0.000 HD
ENDBRANCH 697 711
BRANCH 696 713
ATOM    713  O3' A   B  67      -7.561 -19.737  72.109  0.00  0.00    +0.000 OA
BRANCH 713 714
ATOM    714  P   A   B  68      -6.895 -19.097  73.433  0.00  0.00    +0.000 P 
ATOM    715  OP2 A   B  68      -6.969 -17.611  73.339  0.00  0.00    +0.000 OA
BRANCH 714 716
ATOM    716  OP1 A   B  68      -7.470 -19.785  74.616  0.00  0.00    +0.000 OA
ATOM    717  H   A   B  68      -7.342 -20.742  74.527  0.00  0.00    +0.000 HD
ENDBRANCH 714 716
BRANCH 714 718
ATOM    718  O5' A   B  68      -5.367 -19.519  73.296  0.00  0.00    +0.000 OA
BRANCH 718 719
ATOM    719  C5' A   B  68      -4.994 -20.891  73.272  0.00  0.00    +0.000 C 
BRANCH 719 720
ATOM    720  C4' A   B  68      -3.593 -21.062  72.733  0.00  0.00    +0.000 C 
ATOM    721  O4' A   B  68      -3.531 -20.569  71.373  0.00  0.00    +0.000 OA
ATOM    722  C3' A   B  68      -2.512 -20.280  73.449  0.00  0.00    +0.000 C 
ATOM    723  C2' A   B  68      -1.430 -20.190  72.383  0.00  0.00    +0.000 C 
ATOM    724  C1' A   B  68      -2.269 -19.984  71.128  0.00  0.00    +0.000 C 
BRANCH 724 725
ATOM    725  N9  A   B  68      -2.460 -18.558  70.819  0.00  0.00    +0.000 N 
ATOM    726  C8  A   B  68      -3.510 -17.754  71.173  0.00  0.00    +0.000 A 
ATOM    727  N7  A   B  68      -3.391 -16.515  70.751  0.00  0.00    +0.000 NA
ATOM    728  C5  A   B  68      -2.176 -16.506  70.077  0.00  0.00    +0.000 A 
ATOM    729  C6  A   B  68      -1.478 -15.494  69.395  0.00  0.00    +0.000 A 
ATOM    730  N1  A   B  68      -0.296 -15.815  68.835  0.00  0.00    +0.000 NA
ATOM    731  C2  A   B  68       0.146 -17.073  68.953  0.00  0.00    +0.000 A 
ATOM    732  N3  A   B  68      -0.420 -18.110  69.563  0.00  0.00    +0.000 NA
ATOM    733  C4  A   B  68      -1.595 -17.754  70.113  0.00  0.00    +0.000 A 
BRANCH 729 734
ATOM    734  N6  A   B  68      -1.919 -14.237  69.286  0.00  0.00    +0.000 N 
ATOM    735  H   A   B  68      -1.387 -13.569  68.796  0.00  0.00    +0.000 HD
ATOM    736  H   A   B  68      -2.776 -13.979  69.696  0.00  0.00    +0.000 HD
ENDBRANCH 729 734
ENDBRANCH 724 725
BRANCH 723 737
ATOM    737  O2' A   B  68      -0.708 -21.401  72.267  0.00  0.00    +0.000 OA
ATOM    738  H   A   B  68      -1.324 -22.128  72.085  0.00  0.00    +0.000 HD
ENDBRANCH 723 737
BRANCH 722 739
ATOM    739  O3' A   B  68      -2.082 -20.915  74.649  0.00  0.00    +0.000 OA
BRANCH 739 740
ATOM    740  P   A   B  69      -1.510 -20.039  75.884  0.00  0.00    +0.000 P 
ATOM    741  OP2 A   B  69      -2.160 -18.700  75.871  0.00  0.00    +0.000 OA
BRANCH 740 742
ATOM    742  OP1 A   B  69      -1.569 -20.869  77.113  0.00  0.00    +0.000 OA
ATOM    743  H   A   B  69      -1.102 -21.706  76.961  0.00  0.00    +0.000 HD
ENDBRANCH 740 742
BRANCH 740 744
ATOM    744  O5' A   B  69       0.021 -19.841  75.486  0.00  0.00    +0.000 OA
BRANCH 744 745
ATOM    745  C5' A   B  69       0.893 -20.963  75.378  0.00  0.00    +0.000 C 
BRANCH 745 746
ATOM    746  C4' A   B  69       2.131 -20.619  74.581  0.00  0.00    +0.000 C 
ATOM    747  O4' A   B  69       1.749 -20.114  73.278  0.00  0.00    +0.000 OA
ATOM    748  C3' A   B  69       3.005 -19.518  75.146  0.00  0.00    +0.000 C 
ATOM    749  C2' A   B  69       3.763 -19.054  73.910  0.00  0.00    +0.000 C 
ATOM    750  C1' A   B  69       2.678 -19.142  72.845  0.00  0.00    +0.000 C 
BRANCH 750 751
ATOM    751  N9  A   B  69       1.981 -17.859  72.659  0.00  0.00    +0.000 N 
ATOM    752  C8  A   B  69       0.780 -17.462  73.183  0.00  0.00    +0.000 A 
ATOM    753  N7  A   B  69       0.425 -16.247  72.832  0.00  0.00    +0.000 NA
ATOM    754  C5  A   B  69       1.471 -15.816  72.024  0.00  0.00    +0.000 A 
ATOM    755  C6  A   B  69       1.702 -14.614  71.333  0.00  0.00    +0.000 A 
ATOM    756  N1  A   B  69       2.841 -14.506  70.621  0.00  0.00    +0.000 NA
ATOM    757  C2  A   B  69       3.687 -15.547  70.605  0.00  0.00    +0.000 A 
ATOM    758  N3  A   B  69       3.577 -16.726  71.207  0.00  0.00    +0.000 NA
ATOM    759  C4  A   B  69       2.431 -16.796  71.911  0.00  0.00    +0.000 A 
BRANCH 755 760
ATOM    760  N6  A   B  69       0.860 -13.574  71.356  0.00  0.00    +0.000 N 
ATOM    761  H   A   B  69       1.074 -12.756  70.852  0.00  0.00    +0.000 HD
ATOM    762  H   A   B  69       0.026 -13.627  71.877  0.00  0.00    +0.000 HD
ENDBRANCH 755 760
ENDBRANCH 750 751
BRANCH 749 763
ATOM    763  O2' A   B  69       4.817 -19.940  73.577  0.00  0.00    +0.000 OA
ATOM    764  H   A   B  69       4.462 -20.834  73.456  0.00  0.00    +0.000 HD
ENDBRANCH 749 763
BRANCH 748 765
ATOM    765  O3' A   B  69       3.856 -19.980  76.192  0.00  0.00    +0.000 OA
BRANCH 765 766
ATOM    766  P   A   B  70       4.284 -18.957  77.369  0.00  0.00    +0.000 P 
ATOM    767  OP2 A   B  70       3.113 -18.125  77.757  0.00  0.00    +0.000 OA
BRANCH 766 768
ATOM    768  OP1 A   B  70       4.985 -19.755  78.402  0.00  0.00    +0.000 OA
ATOM    769  H   A   B  70       5.720 -20.238  77.994  0.00  0.00    +0.000 HD
ENDBRANCH 766 768
BRANCH 766 770
ATOM    770  O5' A   B  70       5.347 -18.006  76.661  0.00  0.00    +0.000 OA
BRANCH 770 771
ATOM    771  C5' A   B  70       6.580 -18.528  76.167  0.00  0.00    +0.000 C 
BRANCH 771 772
ATOM    772  C4' A   B  70       7.290 -17.522  75.295  0.00  0.00    +0.000 C 
ATOM    773  O4' A   B  70       6.436 -17.146  74.186  0.00  0.00    +0.000 OA
ATOM    774  C3' A   B  70       7.625 -16.195  75.951  0.00  0.00    +0.000 C 
ATOM    775  C2' A   B  70       7.766 -15.274  74.746  0.00  0.00    +0.000 C 
ATOM    776  C1' A   B  70       6.645 -15.788  73.851  0.00  0.00    +0.000 C 
BRANCH 776 777
ATOM    777  N9  A   B  70       5.392 -15.046  74.057  0.00  0.00    +0.000 N 
ATOM    778  C8  A   B  70       4.304 -15.417  74.804  0.00  0.00    +0.000 A 
ATOM    779  N7  A   B  70       3.331 -14.535  74.794  0.00  0.00    +0.000 NA
ATOM    780  C5  A   B  70       3.818 -13.512  73.989  0.00  0.00    +0.000 A 
ATOM    781  C6  A   B  70       3.268 -12.286  73.578  0.00  0.00    +0.000 A 
ATOM    782  N6  A   B  70       2.050 -11.860  73.951  0.00  0.00    +0.000 N 
ATOM    783  N1  A   B  70       4.010 -11.497  72.776  0.00  0.00    +0.000 NA
ATOM    784  C2  A   B  70       5.226 -11.922  72.412  0.00  0.00    +0.000 A 
ATOM    785  N3  A   B  70       5.848 -13.051  72.727  0.00  0.00    +0.000 NA
ATOM    786  C4  A   B  70       5.080 -13.812  73.531  0.00  0.00    +0.000 A 
ATOM    787  H   A   B  70       1.714 -10.991  73.633  0.00  0.00    +0.000 HD
ATOM    788  H   A   B  70       1.494 -12.417  74.542  0.00  0.00    +0.000 HD
ENDBRANCH 776 777
BRANCH 775 789
ATOM    789  O2' A   B  70       9.009 -15.454  74.087  0.00  0.00    +0.000 OA
ATOM    790  H   A   B  70       9.108 -16.385  73.832  0.00  0.00    +0.000 HD
ENDBRANCH 775 789
BRANCH 774 791
ATOM    791  O3' A   B  70       8.798 -16.262  76.753  0.00  0.00    +0.000 OA
BRANCH 791 792
ATOM    792  P   U   B  71       8.950 -15.280  78.049  0.00  0.00    +0.000 P 
ATOM    793  OP2 U   B  71       7.616 -15.072  78.671  0.00  0.00    +0.000 OA
BRANCH 792 794
ATOM    794  OP1 U   B  71      10.069 -15.804  78.870  0.00  0.00    +0.000 OA
ATOM    795  H   U   B  71      10.865 -15.882  78.320  0.00  0.00    +0.000 HD
ENDBRANCH 792 794
BRANCH 792 796
ATOM    796  O5' U   B  71       9.411 -13.900  77.402  0.00  0.00    +0.000 OA
BRANCH 796 797
ATOM    797  C5' U   B  71      10.651 -13.788  76.705  0.00  0.00    +0.000 C 
BRANCH 797 798
ATOM    798  C4' U   B  71      10.745 -12.482  75.952  0.00  0.00    +0.000 C 
ATOM    799  O4' U   B  71       9.673 -12.395  74.977  0.00  0.00    +0.000 OA
ATOM    800  C3' U   B  71      10.578 -11.228  76.780  0.00  0.00    +0.000 C 
ATOM    801  C2' U   B  71      10.180 -10.205  75.723  0.00  0.00    +0.000 C 
ATOM    802  C1' U   B  71       9.273 -11.046  74.827  0.00  0.00    +0.000 C 
BRANCH 802 803
ATOM    803  N1  U   B  71       7.847 -10.916  75.202  0.00  0.00    +0.000 N 
ATOM    804  C2  U   B  71       7.164  -9.810  74.726  0.00  0.00    +0.000 A 
ATOM    805  O2  U   B  71       7.686  -8.961  74.019  0.00  0.00    +0.000 OA
ATOM    806  N3  U   B  71       5.843  -9.732  75.107  0.00  0.00    +0.000 N 
ATOM    807  C4  U   B  71       5.150 -10.626  75.900  0.00  0.00    +0.000 A 
ATOM    808  O4  U   B  71       3.968 -10.416  76.157  0.00  0.00    +0.000 OA
ATOM    809  C5  U   B  71       5.925 -11.736  76.353  0.00  0.00    +0.000 A 
ATOM    810  C6  U   B  71       7.215 -11.842  75.996  0.00  0.00    +0.000 A 
ATOM    811  H   U   B  71       5.337  -8.954  74.778  0.00  0.00    +0.000 HD
ENDBRANCH 802 803
BRANCH 801 812
ATOM    812  O2' U   B  71      11.295  -9.766  74.970  0.00  0.00    +0.000 OA
ATOM    813  H   U   B  71      11.737 -10.531  74.570  0.00  0.00    +0.000 HD
ENDBRANCH 801 812
BRANCH 800 814
ATOM    814  O3' U   B  71      11.760 -10.872  77.494  0.00  0.00    +0.000 OA
BRANCH 814 815
ATOM    815  P   C   B  72      11.626 -10.049  78.898  0.00  0.00    +0.000 P 
ATOM    816  OP1 C   B  72      12.961 -10.066  79.543  0.00  0.00    +0.000 OA
BRANCH 815 817
ATOM    817  OP2 C   B  72      10.442 -10.533  79.654  0.00  0.00    +0.000 OA
ATOM    818  H   C   B  72       9.651 -10.458  79.098  0.00  0.00    +0.000 HD
ENDBRANCH 815 817
BRANCH 815 819
ATOM    819  O5' C   B  72      11.325  -8.558  78.420  0.00  0.00    +0.000 OA
BRANCH 819 820
ATOM    820  C5' C   B  72      12.301  -7.805  77.697  0.00  0.00    +0.000 C 
BRANCH 820 821
ATOM    821  C4' C   B  72      11.708  -6.544  77.115  0.00  0.00    +0.000 C 
ATOM    822  O4' C   B  72      10.595  -6.878  76.239  0.00  0.00    +0.000 OA
ATOM    823  C3' C   B  72      11.103  -5.571  78.102  0.00  0.00    +0.000 C 
ATOM    824  C2' C   B  72      10.174  -4.757  77.212  0.00  0.00    +0.000 C 
ATOM    825  C1' C   B  72       9.629  -5.842  76.285  0.00  0.00    +0.000 C 
BRANCH 825 826
ATOM    826  N1  C   B  72       8.342  -6.392  76.770  0.00  0.00    +0.000 N 
ATOM    827  C2  C   B  72       7.169  -5.675  76.493  0.00  0.00    +0.000 A 
ATOM    828  O2  C   B  72       7.238  -4.615  75.853  0.00  0.00    +0.000 OA
ATOM    829  N3  C   B  72       5.977  -6.164  76.932  0.00  0.00    +0.000 NA
ATOM    830  C4  C   B  72       5.930  -7.308  77.618  0.00  0.00    +0.000 A 
ATOM    831  N4  C   B  72       4.740  -7.748  78.028  0.00  0.00    +0.000 N 
ATOM    832  C5  C   B  72       7.108  -8.047  77.912  0.00  0.00    +0.000 A 
ATOM    833  C6  C   B  72       8.280  -7.559  77.471  0.00  0.00    +0.000 A 
ATOM    834  H   C   B  72       3.927  -7.233  77.822  0.00  0.00    +0.000 HD
ATOM    835  H   C   B  72       4.674  -8.588  78.537  0.00  0.00    +0.000 HD
ENDBRANCH 825 826
BRANCH 824 836
ATOM    836  O2' C   B  72      10.880  -3.805  76.443  0.00  0.00    +0.000 OA
ATOM    837  H   C   B  72      11.562  -4.254  75.919  0.00  0.00    +0.000 HD
ENDBRANCH 824 836
BRANCH 823 838
ATOM    838  O3' C   B  72      12.078  -4.773  78.764  0.00  0.00    +0.000 OA
BRANCH 838 839
ATOM    839  P   U   B  73      11.749  -4.188  80.286  0.00  0.00    +0.000 P 
ATOM    840  OP1 U   B  73      13.001  -3.581  80.798  0.00  0.00    +0.000 OA
BRANCH 839 841
ATOM    841  OP2 U   B  73      11.062  -5.237  81.083  0.00  0.00    +0.000 OA
ATOM    842  H   U   B  73      10.265  -5.529  80.614  0.00  0.00    +0.000 HD
ENDBRANCH 839 841
BRANCH 839 843
ATOM    843  O5' U   B  73      10.698  -3.015  80.013  0.00  0.00    +0.000 OA
BRANCH 843 844
ATOM    844  C5' U   B  73      11.069  -1.839  79.307  0.00  0.00    +0.000 C 
BRANCH 844 845
ATOM    845  C4' U   B  73       9.867  -0.991  78.952  0.00  0.00    +0.000 C 
ATOM    846  O4' U   B  73       8.926  -1.772  78.168  0.00  0.00    +0.000 OA
ATOM    847  C3' U   B  73       9.037  -0.489  80.111  0.00  0.00    +0.000 C 
ATOM    848  C2' U   B  73       7.706  -0.185  79.439  0.00  0.00    +0.000 C 
ATOM    849  C1' U   B  73       7.605  -1.343  78.446  0.00  0.00    +0.000 C 
BRANCH 849 850
ATOM    850  N1  U   B  73       6.825  -2.476  78.992  0.00  0.00    +0.000 N 
ATOM    851  C2  U   B  73       5.443  -2.371  78.956  0.00  0.00    +0.000 A 
ATOM    852  O2  U   B  73       4.862  -1.401  78.500  0.00  0.00    +0.000 OA
ATOM    853  N3  U   B  73       4.762  -3.451  79.478  0.00  0.00    +0.000 N 
ATOM    854  C4  U   B  73       5.311  -4.595  80.019  0.00  0.00    +0.000 A 
ATOM    855  O4  U   B  73       4.568  -5.477  80.450  0.00  0.00    +0.000 OA
ATOM    856  C5  U   B  73       6.738  -4.625  80.019  0.00  0.00    +0.000 A 
ATOM    857  C6  U   B  73       7.432  -3.590  79.514  0.00  0.00    +0.000 A 
ATOM    858  H   U   B  73       3.779  -3.400  79.463  0.00  0.00    +0.000 HD
ENDBRANCH 849 850
BRANCH 848 859
ATOM    859  O2' U   B  73       7.745   1.036  78.724  0.00  0.00    +0.000 OA
ATOM    860  H   U   B  73       8.468   1.009  78.077  0.00  0.00    +0.000 HD
ENDBRANCH 848 859
BRANCH 847 861
ATOM    861  O3' U   B  73       9.613   0.648  80.752  0.00  0.00    +0.000 OA
BRANCH 861 862
ATOM    862  P   C   B  74       9.226   0.990  82.309  0.00  0.00    +0.000 P 
ATOM    863  OP1 C   B  74      10.169   2.040  82.771  0.00  0.00    +0.000 OA
BRANCH 862 864
ATOM    864  OP2 C   B  74       9.118  -0.281  83.072  0.00  0.00    +0.000 OA
ATOM    865  H   C   B  74       8.465  -0.859  82.647  0.00  0.00    +0.000 HD
ENDBRANCH 862 864
BRANCH 862 866
ATOM    866  O5' C   B  74       7.771   1.633  82.219  0.00  0.00    +0.000 OA
BRANCH 866 867
ATOM    867  C5' C   B  74       7.552   2.881  81.567  0.00  0.00    +0.000 C 
BRANCH 867 868
ATOM    868  C4' C   B  74       6.078   3.203  81.469  0.00  0.00    +0.000 C 
ATOM    869  O4' C   B  74       5.391   2.158  80.726  0.00  0.00    +0.000 OA
ATOM    870  C3' C   B  74       5.324   3.272  82.779  0.00  0.00    +0.000 C 
ATOM    871  C2' C   B  74       3.885   3.050  82.329  0.00  0.00    +0.000 C 
ATOM    872  C1' C   B  74       4.073   2.010  81.225  0.00  0.00    +0.000 C 
BRANCH 872 873
ATOM    873  N1  C   B  74       3.892   0.625  81.714  0.00  0.00    +0.000 N 
ATOM    874  C2  C   B  74       2.589   0.138  81.881  0.00  0.00    +0.000 A 
ATOM    875  O2  C   B  74       1.626   0.872  81.613  0.00  0.00    +0.000 OA
ATOM    876  N3  C   B  74       2.408  -1.135  82.326  0.00  0.00    +0.000 NA
ATOM    877  C4  C   B  74       3.463  -1.901  82.605  0.00  0.00    +0.000 A 
ATOM    878  N4  C   B  74       3.241  -3.146  83.040  0.00  0.00    +0.000 N 
ATOM    879  C5  C   B  74       4.795  -1.428  82.447  0.00  0.00    +0.000 A 
ATOM    880  C6  C   B  74       4.960  -0.172  82.000  0.00  0.00    +0.000 A 
ATOM    881  H   C   B  74       2.319  -3.472  83.149  0.00  0.00    +0.000 HD
ATOM    882  H   C   B  74       4.000  -3.736  83.251  0.00  0.00    +0.000 HD
ENDBRANCH 872 873
BRANCH 871 883
ATOM    883  O2' C   B  74       3.321   4.220  81.770  0.00  0.00    +0.000 OA
ATOM    884  H   C   B  74       3.874   4.525  81.034  0.00  0.00    +0.000 HD
ENDBRANCH 871 883
BRANCH 870 885
ATOM    885  O3' C   B  74       5.512   4.514  83.455  0.00  0.00    +0.000 OA
BRANCH 885 886
ATOM    886  P   C   B  75       5.407   4.609  85.099  0.00  0.00    +0.000 P 
ATOM    887  OP1 C   B  75       5.888   5.953  85.509  0.00  0.00    +0.000 OA
BRANCH 886 888
ATOM    888  OP2 C   B  75       6.048   3.397  85.669  0.00  0.00    +0.000 OA
ATOM    889  H   C   B  75       5.624   2.605  85.304  0.00  0.00    +0.000 HD
ENDBRANCH 886 888
BRANCH 886 890
ATOM    890  O5' C   B  75       3.843   4.523  85.390  0.00  0.00    +0.000 OA
BRANCH 890 891
ATOM    891  C5' C   B  75       2.960   5.569  85.002  0.00  0.00    +0.000 C 
BRANCH 891 892
ATOM    892  C4' C   B  75       1.520   5.215  85.295  0.00  0.00    +0.000 C 
ATOM    893  O4' C   B  75       1.136   4.039  84.528  0.00  0.00    +0.000 OA
ATOM    894  C3' C   B  75       1.210   4.835  86.729  0.00  0.00    +0.000 C 
ATOM    895  C2' C   B  75      -0.070   4.025  86.574  0.00  0.00    +0.000 C 
ATOM    896  C1' C   B  75       0.199   3.277  85.266  0.00  0.00    +0.000 C 
BRANCH 896 897
ATOM    897  N1  C   B  75       0.749   1.923  85.491  0.00  0.00    +0.000 N 
ATOM    898  C2  C   B  75      -0.135   0.883  85.813  0.00  0.00    +0.000 A 
ATOM    899  O2  C   B  75      -1.348   1.122  85.897  0.00  0.00    +0.000 OA
ATOM    900  N3  C   B  75       0.358  -0.369  86.017  0.00  0.00    +0.000 NA
ATOM    901  C4  C   B  75       1.669  -0.593  85.916  0.00  0.00    +0.000 A 
ATOM    902  N4  C   B  75       2.114  -1.835  86.124  0.00  0.00    +0.000 N 
ATOM    903  C5  C   B  75       2.585   0.444  85.596  0.00  0.00    +0.000 A 
ATOM    904  C6  C   B  75       2.083   1.674  85.390  0.00  0.00    +0.000 A 
ATOM    905  H   C   B  75       3.076  -2.031  86.056  0.00  0.00    +0.000 HD
ATOM    906  H   C   B  75       1.480  -2.555  86.345  0.00  0.00    +0.000 HD
ENDBRANCH 896 897
BRANCH 895 907
ATOM    907  O2' C   B  75      -1.199   4.859  86.402  0.00  0.00    +0.000 OA
ATOM    908  H   C   B  75      -1.058   5.441  85.639  0.00  0.00    +0.000 HD
ENDBRANCH 895 907
BRANCH 894 909
ATOM    909  O3' C   B  75       1.056   5.974  87.577  0.00  0.00    +0.000 OA
BRANCH 909 910
ATOM    910  P   A   B  76       1.524   5.923  89.139  0.00  0.00    +0.000 P 
ATOM    911  OP2 A   B  76       2.832   5.233  89.202  0.00  0.00    +0.000 OA
BRANCH 910 912
ATOM    912  OP1 A   B  76       1.376   7.286  89.712  0.00  0.00    +0.000 OA
ATOM    913  H   A   B  76       2.029   7.879  89.309  0.00  0.00    +0.000 HD
ENDBRANCH 910 912
BRANCH 910 914
ATOM    914  O5' A   B  76       0.437   4.970  89.820  0.00  0.00    +0.000 OA
BRANCH 914 915
ATOM    915  C5' A   B  76      -0.918   5.386  89.957  0.00  0.00    +0.000 C 
BRANCH 915 916
ATOM    916  C4' A   B  76      -1.799   4.252  90.441  0.00  0.00    +0.000 C 
ATOM    917  O4' A   B  76      -1.734   3.164  89.489  0.00  0.00    +0.000 OA
ATOM    918  C3' A   B  76      -1.393   3.609  91.758  0.00  0.00    +0.000 C 
ATOM    919  C2' A   B  76      -2.025   2.232  91.652  0.00  0.00    +0.000 C 
ATOM    920  C1' A   B  76      -1.825   1.925  90.165  0.00  0.00    +0.000 C 
BRANCH 920 921
ATOM    921  N9  A   B  76      -0.598   1.160  89.911  0.00  0.00    +0.000 N 
ATOM    922  C8  A   B  76       0.626   1.630  89.540  0.00  0.00    +0.000 A 
ATOM    923  N7  A   B  76       1.537   0.695  89.387  0.00  0.00    +0.000 NA
ATOM    924  C5  A   B  76       0.860  -0.476  89.683  0.00  0.00    +0.000 A 
ATOM    925  C6  A   B  76       1.260  -1.824  89.701  0.00  0.00    +0.000 A 
ATOM    926  N1  A   B  76       0.336  -2.749  90.032  0.00  0.00    +0.000 NA
ATOM    927  C2  A   B  76      -0.905  -2.338  90.327  0.00  0.00    +0.000 A 
ATOM    928  N3  A   B  76      -1.398  -1.101  90.339  0.00  0.00    +0.000 NA
ATOM    929  C4  A   B  76      -0.447  -0.209  90.003  0.00  0.00    +0.000 A 
BRANCH 925 930
ATOM    930  N6  A   B  76       2.502  -2.235  89.413  0.00  0.00    +0.000 N 
ATOM    931  H   A   B  76       3.194  -1.578  89.169  0.00  0.00    +0.000 HD
ATOM    932  H   A   B  76       2.723  -3.194  89.446  0.00  0.00    +0.000 HD
ENDBRANCH 925 930
ENDBRANCH 920 921
BRANCH 919 933
ATOM    933  O2' A   B  76      -3.407   2.274  91.944  0.00  0.00    +0.000 OA
ATOM    934  H   A   B  76      -3.842   2.912  91.357  0.00  0.00    +0.000 HD
ENDBRANCH 919 933
BRANCH 918 935
ATOM    935  O3' A   B  76      -1.843   4.358  92.890  0.00  0.00    +0.000 OA
ATOM    936  H   A   B  76      -2.807   4.457  92.850  0.00  0.00    +0.000 HD
ENDBRANCH 918 935
ENDBRANCH 915 916
ENDBRANCH 914 915
ENDBRANCH 910 914
ENDBRANCH 909 910
ENDBRANCH 894 909
ENDBRANCH 891 892
ENDBRANCH 890 891
ENDBRANCH 886 890
ENDBRANCH 885 886
ENDBRANCH 870 885
ENDBRANCH 867 868
ENDBRANCH 866 867
ENDBRANCH 862 866
ENDBRANCH 861 862
ENDBRANCH 847 861
ENDBRANCH 844 845
ENDBRANCH 843 844
ENDBRANCH 839 843
ENDBRANCH 838 839
ENDBRANCH 823 838
ENDBRANCH 820 821
ENDBRANCH 819 820
ENDBRANCH 815 819
ENDBRANCH 814 815
ENDBRANCH 800 814
ENDBRANCH 797 798
ENDBRANCH 796 797
ENDBRANCH 792 796
ENDBRANCH 791 792
ENDBRANCH 774 791
ENDBRANCH 771 772
ENDBRANCH 770 771
ENDBRANCH 766 770
ENDBRANCH 765 766
ENDBRANCH 748 765
ENDBRANCH 745 746
ENDBRANCH 744 745
ENDBRANCH 740 744
ENDBRANCH 739 740
ENDBRANCH 722 739
ENDBRANCH 719 720
ENDBRANCH 718 719
ENDBRANCH 714 718
ENDBRANCH 713 714
ENDBRANCH 696 713
ENDBRANCH 693 694
ENDBRANCH 692 693
ENDBRANCH 688 692
ENDBRANCH 687 688
ENDBRANCH 670 687
ENDBRANCH 667 668
ENDBRANCH 666 667
ENDBRANCH 662 666
ENDBRANCH 661 662
ENDBRANCH 646 661
ENDBRANCH 643 644
ENDBRANCH 642 643
ENDBRANCH 638 642
ENDBRANCH 637 638
ENDBRANCH 620 637
ENDBRANCH 617 618
ENDBRANCH 616 617
ENDBRANCH 612 616
ENDBRANCH 611 612
ENDBRANCH 597 611
ENDBRANCH 594 595
ENDBRANCH 593 594
ENDBRANCH 589 593
ENDBRANCH 588 589
ENDBRANCH 573 588
ENDBRANCH 570 571
ENDBRANCH 569 570
ENDBRANCH 565 569
ENDBRANCH 564 565
ENDBRANCH 547 564
ENDBRANCH 544 545
ENDBRANCH 543 544
ENDBRANCH 539 543
ENDBRANCH 538 539
ENDBRANCH 519 538
ENDBRANCH 516 517
ENDBRANCH 515 516
ENDBRANCH 511 515
ENDBRANCH 510 511
ENDBRANCH 493 510
ENDBRANCH 490 491
ENDBRANCH 489 490
ENDBRANCH 485 489
ENDBRANCH 484 485
ENDBRANCH 469 484
ENDBRANCH 466 467
ENDBRANCH 465 466
ENDBRANCH 461 465
ENDBRANCH 460 461
ENDBRANCH 443 460
ENDBRANCH 440 441
ENDBRANCH 439 440
ENDBRANCH 435 439
ENDBRANCH 434 435
ENDBRANCH 417 434
ENDBRANCH 414 415
ENDBRANCH 413 414
ENDBRANCH 409 413
ENDBRANCH 408 409
ENDBRANCH 391 408
ENDBRANCH 388 389
ENDBRANCH 387 388
ENDBRANCH 383 387
ENDBRANCH 382 383
ENDBRANCH 365 382
ENDBRANCH 362 363
ENDBRANCH 361 362
ENDBRANCH 357 361
ENDBRANCH 356 357
ENDBRANCH 339 356
ENDBRANCH 336 337
ENDBRANCH 335 336
ENDBRANCH 331 335
ENDBRANCH 330 331
ENDBRANCH 316 330
ENDBRANCH 313 314
ENDBRANCH 312 313
ENDBRANCH 308 312
ENDBRANCH 307 308
ENDBRANCH 293 307
ENDBRANCH 290 291
ENDBRANCH 289 290
ENDBRANCH 285 289
ENDBRANCH 284 285
ENDBRANCH 270 284
ENDBRANCH 267 268
ENDBRANCH 266 267
ENDBRANCH 262 266
ENDBRANCH 261 262
ENDBRANCH 247 261
ENDBRANCH 244 245
ENDBRANCH 243 244
ENDBRANCH 239 243
ENDBRANCH 238 239
ENDBRANCH 221 238
ENDBRANCH 218 219
ENDBRANCH 217 218
ENDBRANCH 213 217
ENDBRANCH 212 213
ENDBRANCH 198 212
ENDBRANCH 195 196
ENDBRANCH 194 195
ENDBRANCH 190 194
ENDBRANCH 189 190
ENDBRANCH 175 189
ENDBRANCH 172 173
ENDBRANCH 171 172
ENDBRANCH 167 171
ENDBRANCH 166 167
ENDBRANCH 152 166
ENDBRANCH 149 150
ENDBRANCH 148 149
ENDBRANCH 144 148
ENDBRANCH 143 144
ENDBRANCH 128 143
ENDBRANCH 125 126
ENDBRANCH 124 125
ENDBRANCH 120 124
ENDBRANCH 119 120
ENDBRANCH 102 119
ENDBRANCH  99 100
ENDBRANCH  98  99
ENDBRANCH  94  98
ENDBRANCH  93  94
ENDBRANCH  79  93
ENDBRANCH  76  77
ENDBRANCH  75  76
ENDBRANCH  71  75
ENDBRANCH  70  71
ENDBRANCH  56  70
ENDBRANCH  53  54
ENDBRANCH  52  53
ENDBRANCH  48  52
ENDBRANCH  47  48
ENDBRANCH  32  47
ENDBRANCH  29  30
ENDBRANCH  28  29
ENDBRANCH  24  28
ENDBRANCH  23  24
ENDBRANCH   9  23
ENDBRANCH   6   7
ENDBRANCH   5   6
ENDBRANCH   1   5
BRANCH   1 937
ATOM    937  O3' U   B  38      14.011   6.018  -3.670  0.00  0.00    +0.000 OA
BRANCH 937 940
ATOM    938  C4' U   B  38      13.846   5.922  -1.225  0.00  0.00    +0.000 C 
ATOM    939  O4' U   B  38      13.417   4.890  -0.295  0.00  0.00    +0.000 OA
ATOM    940  C3' U   B  38      13.357   5.412  -2.567  0.00  0.00    +0.000 C 
ATOM    941  C2' U   B  38      13.626   3.914  -2.446  0.00  0.00    +0.000 C 
ATOM    942  C1' U   B  38      13.247   3.666  -0.989  0.00  0.00    +0.000 C 
BRANCH 942 943
ATOM    943  N1  U   B  38      11.843   3.222  -0.858  0.00  0.00    +0.000 N 
ATOM    944  C2  U   B  38      11.580   1.878  -1.066  0.00  0.00    +0.000 A 
ATOM    945  O2  U   B  38      12.451   1.073  -1.338  0.00  0.00    +0.000 OA
ATOM    946  N3  U   B  38      10.261   1.514  -0.949  0.00  0.00    +0.000 N 
ATOM    947  C4  U   B  38       9.195   2.337  -0.651  0.00  0.00    +0.000 A 
ATOM    948  O4  U   B  38       8.065   1.860  -0.579  0.00  0.00    +0.000 OA
ATOM    949  C5  U   B  38       9.545   3.711  -0.450  0.00  0.00    +0.000 A 
ATOM    950  C6  U   B  38      10.827   4.097  -0.558  0.00  0.00    +0.000 A 
ATOM    951  H   U   B  38      10.054   0.562  -1.093  0.00  0.00    +0.000 HD
ENDBRANCH 942 943
BRANCH 941 952
ATOM    952  O2' U   B  38      14.988   3.612  -2.633  0.00  0.00    +0.000 OA
ATOM    953  H   U   B  38      15.521   4.119  -2.001  0.00  0.00    +0.000 HD
ENDBRANCH 941 952
BRANCH 938 954
ATOM    954  C5' U   B  38      13.325   7.267  -0.784  0.00  0.00    +0.000 C 
BRANCH 954 955
ATOM    955  O5' U   B  38      11.907   7.270  -0.715  0.00  0.00    +0.000 OA
BRANCH 955 956
ATOM    956  P   U   B  38      11.128   8.454   0.010  0.00  0.00    +0.000 P 
ATOM    957  OP1 U   B  38      11.646   9.744  -0.511  0.00  0.00    +0.000 OA
BRANCH 956 958
ATOM    958  OP2 U   B  38       9.673   8.163  -0.067  0.00  0.00    +0.000 OA
ATOM    959  H   U   B  38       9.374   8.248  -0.986  0.00  0.00    +0.000 HD
ENDBRANCH 956 958
BRANCH 956 960
ATOM    960  O3' A   B  37      11.605   8.310   1.531  0.00  0.00    +0.000 OA
BRANCH 960 963
ATOM    961  C4' A   B  37      10.939   7.707   3.812  0.00  0.00    +0.000 C 
ATOM    962  O4' A   B  37      10.855   6.450   4.529  0.00  0.00    +0.000 OA
ATOM    963  C3' A   B  37      11.056   7.292   2.356  0.00  0.00    +0.000 C 
ATOM    964  C2' A   B  37      11.936   6.052   2.452  0.00  0.00    +0.000 C 
ATOM    965  C1' A   B  37      11.419   5.418   3.742  0.00  0.00    +0.000 C 
BRANCH 965 966
ATOM    966  N9  A   B  37      10.388   4.401   3.482  0.00  0.00    +0.000 N 
ATOM    967  C8  A   B  37       9.030   4.515   3.618  0.00  0.00    +0.000 A 
ATOM    968  N7  A   B  37       8.371   3.423   3.308  0.00  0.00    +0.000 NA
ATOM    969  C5  A   B  37       9.366   2.528   2.938  0.00  0.00    +0.000 A 
ATOM    970  C6  A   B  37       9.328   1.193   2.501  0.00  0.00    +0.000 A 
ATOM    971  N1  A   B  37      10.499   0.591   2.219  0.00  0.00    +0.000 NA
ATOM    972  C2  A   B  37      11.631   1.291   2.367  0.00  0.00    +0.000 A 
ATOM    973  N3  A   B  37      11.799   2.549   2.771  0.00  0.00    +0.000 NA
ATOM    974  C4  A   B  37      10.611   3.118   3.042  0.00  0.00    +0.000 A 
BRANCH 970 975
ATOM    975  N6  A   B  37       8.192   0.492   2.353  0.00  0.00    +0.000 N 
ATOM    976  H   A   B  37       8.227  -0.442   2.043  0.00  0.00    +0.000 HD
ATOM    977  H   A   B  37       7.325   0.912   2.555  0.00  0.00    +0.000 HD
ENDBRANCH 970 975
ENDBRANCH 965 966
BRANCH 964 978
ATOM    978  O2' A   B  37      13.299   6.385   2.613  0.00  0.00    +0.000 OA
ATOM    979  H   A   B  37      13.404   6.949   3.395  0.00  0.00    +0.000 HD
ENDBRANCH 964 978
BRANCH 961 980
ATOM    980  C5' A   B  37       9.761   8.585   4.156  0.00  0.00    +0.000 C 
BRANCH 980 981
ATOM    981  O5' A   B  37       8.554   8.042   3.637  0.00  0.00    +0.000 OA
BRANCH 981 982
ATOM    982  P   A   B  37       7.187   8.846   3.772  0.00  0.00    +0.000 P 
ATOM    983  OP2 A   B  37       6.116   8.060   3.099  0.00  0.00    +0.000 OA
BRANCH 982 984
ATOM    984  OP1 A   B  37       7.438  10.252   3.356  0.00  0.00    +0.000 OA
ATOM    985  H   A   B  37       7.603  10.282   2.401  0.00  0.00    +0.000 HD
ENDBRANCH 982 984
BRANCH 982 986
ATOM    986  O3' U   B  36       6.920   8.843   5.348  0.00  0.00    +0.000 OA
BRANCH 986 989
ATOM    987  C4' U   B  36       5.602   8.039   7.248  0.00  0.00    +0.000 C 
ATOM    988  O4' U   B  36       5.523   6.767   7.945  0.00  0.00    +0.000 OA
ATOM    989  C3' U   B  36       6.337   7.705   5.966  0.00  0.00    +0.000 C 
ATOM    990  C2' U   B  36       7.361   6.679   6.448  0.00  0.00    +0.000 C 
ATOM    991  C1' U   B  36       6.542   5.902   7.477  0.00  0.00    +0.000 C 
BRANCH 991 992
ATOM    992  N1  U   B  36       5.924   4.688   6.894  0.00  0.00    +0.000 N 
ATOM    993  C2  U   B  36       6.728   3.565   6.747  0.00  0.00    +0.000 A 
ATOM    994  O2  U   B  36       7.898   3.544   7.075  0.00  0.00    +0.000 OA
ATOM    995  N3  U   B  36       6.106   2.470   6.199  0.00  0.00    +0.000 N 
ATOM    996  C4  U   B  36       4.793   2.376   5.787  0.00  0.00    +0.000 A 
ATOM    997  O4  U   B  36       4.381   1.316   5.312  0.00  0.00    +0.000 OA
ATOM    998  C5  U   B  36       4.027   3.569   5.970  0.00  0.00    +0.000 A 
ATOM    999  C6  U   B  36       4.606   4.659   6.505  0.00  0.00    +0.000 A 
ATOM   1000  H   U   B  36       6.658   1.663   6.088  0.00  0.00    +0.000 HD
ENDBRANCH 991 992
BRANCH 9901001
ATOM   1001  O2' U   B  36       8.456   7.297   7.089  0.00  0.00    +0.000 OA
ATOM   1002  H   U   B  36       8.134   7.846   7.822  0.00  0.00    +0.000 HD
ENDBRANCH 9901001
BRANCH 9871003
ATOM   1003  C5' U   B  36       4.221   8.635   7.086  0.00  0.00    +0.000 C 
BRANCH10031004
ATOM   1004  O5' U   B  36       3.374   7.763   6.344  0.00  0.00    +0.000 OA
BRANCH10041005
ATOM   1005  P   U   B  36       1.831   8.111   6.124  0.00  0.00    +0.000 P 
ATOM   1006  OP2 U   B  36       1.241   7.052   5.258  0.00  0.00    +0.000 OA
BRANCH10051007
ATOM   1007  OP1 U   B  36       1.729   9.533   5.713  0.00  0.00    +0.000 OA
ATOM   1008  H   U   B  36       2.107   9.641   4.826  0.00  0.00    +0.000 HD
ENDBRANCH10051007
BRANCH10051009
ATOM   1009  O3' A   B  35       1.197   7.990   7.584  0.00  0.00    +0.000 OA
BRANCH10091012
ATOM   1010  C4' A   B  35      -0.046   6.582   9.172  0.00  0.00    +0.000 C 
ATOM   1011  O4' A   B  35       0.349   5.521  10.080  0.00  0.00    +0.000 OA
ATOM   1012  C3' A   B  35       1.155   6.741   8.257  0.00  0.00    +0.000 C 
ATOM   1013  C2' A   B  35       2.307   6.549   9.234  0.00  0.00    +0.000 C 
ATOM   1014  C1' A   B  35       1.763   5.440  10.127  0.00  0.00    +0.000 C 
BRANCH10141015
ATOM   1015  N9  A   B  35       2.190   4.112   9.654  0.00  0.00    +0.000 N 
ATOM   1016  C8  A   B  35       1.455   3.156   8.991  0.00  0.00    +0.000 A 
ATOM   1017  N7  A   B  35       2.141   2.077   8.702  0.00  0.00    +0.000 NA
ATOM   1018  C5  A   B  35       3.409   2.340   9.201  0.00  0.00    +0.000 A 
ATOM   1019  C6  A   B  35       4.601   1.595   9.211  0.00  0.00    +0.000 A 
ATOM   1020  N1  A   B  35       5.683   2.152   9.790  0.00  0.00    +0.000 NA
ATOM   1021  C2  A   B  35       5.571   3.376  10.320  0.00  0.00    +0.000 A 
ATOM   1022  N3  A   B  35       4.508   4.173  10.375  0.00  0.00    +0.000 NA
ATOM   1023  C4  A   B  35       3.451   3.589   9.787  0.00  0.00    +0.000 A 
BRANCH10191024
ATOM   1024  N6  A   B  35       4.717   0.371   8.682  0.00  0.00    +0.000 N 
ATOM   1025  H   A   B  35       3.940  -0.056   8.254  0.00  0.00    +0.000 HD
ATOM   1026  H   A   B  35       5.579  -0.102   8.721  0.00  0.00    +0.000 HD
ENDBRANCH10191024
ENDBRANCH10141015
BRANCH10131027
ATOM   1027  O2' A   B  35       2.534   7.709  10.015  0.00  0.00    +0.000 OA
ATOM   1028  H   A   B  35       1.718   7.950  10.480  0.00  0.00    +0.000 HD
ENDBRANCH10131027
BRANCH10101029
ATOM   1029  C5' A   B  35      -1.358   6.235   8.513  0.00  0.00    +0.000 C 
BRANCH10291030
ATOM   1030  O5' A   B  35      -1.343   4.913   7.978  0.00  0.00    +0.000 OA
BRANCH10301031
ATOM   1031  P   A   B  35      -2.710   4.152   7.647  0.00  0.00    +0.000 P 
ATOM   1032  OP2 A   B  35      -2.369   2.884   6.949  0.00  0.00    +0.000 OA
BRANCH10311033
ATOM   1033  OP1 A   B  35      -3.632   5.116   6.995  0.00  0.00    +0.000 OA
ATOM   1034  H   A   B  35      -3.299   5.335   6.111  0.00  0.00    +0.000 HD
ENDBRANCH10311033
BRANCH10311035
ATOM   1035  O3' A   B  34      -3.288   3.816   9.096  0.00  0.00    +0.000 OA
BRANCH10351038
ATOM   1036  C4' A   B  34      -3.740   2.047  10.745  0.00  0.00    +0.000 C 
ATOM   1037  O4' A   B  34      -2.941   1.413  11.776  0.00  0.00    +0.000 OA
ATOM   1038  C3' A   B  34      -2.724   2.774   9.882  0.00  0.00    +0.000 C 
ATOM   1039  C2' A   B  34      -1.737   3.271  10.932  0.00  0.00    +0.000 C 
ATOM   1040  C1' A   B  34      -1.704   2.094  11.902  0.00  0.00    +0.000 C 
BRANCH10401041
ATOM   1041  N9  A   B  34      -0.612   1.158  11.594  0.00  0.00    +0.000 N 
ATOM   1042  C8  A   B  34      -0.669  -0.020  10.889  0.00  0.00    +0.000 A 
ATOM   1043  N7  A   B  34       0.488  -0.630  10.785  0.00  0.00    +0.000 NA
ATOM   1044  C5  A   B  34       1.366   0.205  11.458  0.00  0.00    +0.000 A 
ATOM   1045  C6  A   B  34       2.749   0.125  11.707  0.00  0.00    +0.000 A 
ATOM   1046  N1  A   B  34       3.317   1.124  12.413  0.00  0.00    +0.000 NA
ATOM   1047  C2  A   B  34       2.546   2.133  12.836  0.00  0.00    +0.000 A 
ATOM   1048  N3  A   B  34       1.237   2.320  12.667  0.00  0.00    +0.000 NA
ATOM   1049  C4  A   B  34       0.703   1.309  11.959  0.00  0.00    +0.000 A 
BRANCH10451050
ATOM   1050  N6  A   B  34       3.521  -0.884  11.287  0.00  0.00    +0.000 N 
ATOM   1051  H   A   B  34       3.127  -1.623  10.770  0.00  0.00    +0.000 HD
ATOM   1052  H   A   B  34       4.483  -0.887  11.495  0.00  0.00    +0.000 HD
ENDBRANCH10451050
ENDBRANCH10401041
BRANCH10391053
ATOM   1053  O2' A   B  34      -2.218   4.418  11.608  0.00  0.00    +0.000 OA
ATOM   1054  H   A   B  34      -3.079   4.220  12.008  0.00  0.00    +0.000 HD
ENDBRANCH10391053
BRANCH10361055
ATOM   1055  C5' A   B  34      -4.590   1.015  10.041  0.00  0.00    +0.000 C 
BRANCH10551056
ATOM   1056  O5' A   B  34      -3.781   0.047   9.375  0.00  0.00    +0.000 OA
BRANCH10561057
ATOM   1057  P   A   B  34      -4.435  -1.270   8.746  0.00  0.00    +0.000 P 
ATOM   1058  OP1 A   B  34      -5.648  -0.873   7.987  0.00  0.00    +0.000 OA
BRANCH10571059
ATOM   1059  OP2 A   B  34      -3.359  -2.033   8.056  0.00  0.00    +0.000 OA
ATOM   1060  H   A   B  34      -3.073  -1.547   7.267  0.00  0.00    +0.000 HD
ENDBRANCH10571059
BRANCH10571061
ATOM   1061  O3' U   B  33      -4.890  -2.084  10.037  0.00  0.00    +0.000 OA
BRANCH10611064
ATOM   1062  C4' U   B  33      -4.468  -4.056  11.437  0.00  0.00    +0.000 C 
ATOM   1063  O4' U   B  33      -3.602  -4.314  12.574  0.00  0.00    +0.000 OA
ATOM   1064  C3' U   B  33      -3.940  -2.759  10.854  0.00  0.00    +0.000 C 
ATOM   1065  C2' U   B  33      -3.558  -1.986  12.113  0.00  0.00    +0.000 C 
ATOM   1066  C1' U   B  33      -2.999  -3.104  12.998  0.00  0.00    +0.000 C 
BRANCH10661067
ATOM   1067  N1  U   B  33      -1.525  -3.233  12.882  0.00  0.00    +0.000 N 
ATOM   1068  C2  U   B  33      -0.746  -2.375  13.642  0.00  0.00    +0.000 A 
ATOM   1069  O2  U   B  33      -1.219  -1.540  14.393  0.00  0.00    +0.000 OA
ATOM   1070  N3  U   B  33       0.613  -2.536  13.495  0.00  0.00    +0.000 N 
ATOM   1071  C4  U   B  33       1.257  -3.440  12.680  0.00  0.00    +0.000 A 
ATOM   1072  O4  U   B  33       2.490  -3.464  12.653  0.00  0.00    +0.000 OA
ATOM   1073  C5  U   B  33       0.385  -4.287  11.923  0.00  0.00    +0.000 A 
ATOM   1074  C6  U   B  33      -0.942  -4.156  12.048  0.00  0.00    +0.000 A 
ATOM   1075  H   U   B  33       1.186  -1.941  14.030  0.00  0.00    +0.000 HD
ENDBRANCH10661067
BRANCH10651076
ATOM   1076  O2' U   B  33      -4.688  -1.419  12.744  0.00  0.00    +0.000 OA
ATOM   1077  H   U   B  33      -5.331  -2.117  12.944  0.00  0.00    +0.000 HD
ENDBRANCH10651076
BRANCH10621078
ATOM   1078  C5' U   B  33      -4.463  -5.244  10.504  0.00  0.00    +0.000 C 
BRANCH10781079
ATOM   1079  O5' U   B  33      -3.167  -5.477   9.963  0.00  0.00    +0.000 OA
BRANCH10791080
ATOM   1080  P   U   B  33      -2.829  -6.824   9.170  0.00  0.00    +0.000 P 
ATOM   1081  OP1 U   B  33      -3.875  -7.032   8.141  0.00  0.00    +0.000 OA
BRANCH10801082
ATOM   1082  OP2 U   B  33      -1.401  -6.767   8.762  0.00  0.00    +0.000 OA
ATOM   1083  H   U   B  33      -1.286  -6.084   8.083  0.00  0.00    +0.000 HD
ENDBRANCH10801082
BRANCH10801084
ATOM   1084  O3' A   B  32      -2.990  -7.949  10.280  0.00  0.00    +0.000 OA
BRANCH10841087
ATOM   1085  C4' A   B  32      -1.829  -9.598  11.678  0.00  0.00    +0.000 C 
ATOM   1086  O4' A   B  32      -1.228  -9.548  12.999  0.00  0.00    +0.000 OA
ATOM   1087  C3' A   B  32      -1.999  -8.138  11.289  0.00  0.00    +0.000 C 
ATOM   1088  C2' A   B  32      -2.363  -7.497  12.623  0.00  0.00    +0.000 C 
ATOM   1089  C1' A   B  32      -1.475  -8.285  13.592  0.00  0.00    +0.000 C 
BRANCH10891090
ATOM   1090  N9  A   B  32      -0.183  -7.622  13.838  0.00  0.00    +0.000 N 
ATOM   1091  C8  A   B  32       1.032  -7.893  13.256  0.00  0.00    +0.000 A 
ATOM   1092  N7  A   B  32       2.005  -7.128  13.687  0.00  0.00    +0.000 NA
ATOM   1093  C5  A   B  32       1.393  -6.294  14.615  0.00  0.00    +0.000 A 
ATOM   1094  C6  A   B  32       1.884  -5.256  15.426  0.00  0.00    +0.000 A 
ATOM   1095  N6  A   B  32       3.165  -4.862  15.436  0.00  0.00    +0.000 N 
ATOM   1096  N1  A   B  32       1.010  -4.624  16.238  0.00  0.00    +0.000 NA
ATOM   1097  C2  A   B  32      -0.271  -5.015  16.230  0.00  0.00    +0.000 A 
ATOM   1098  N3  A   B  32      -0.852  -5.980  15.515  0.00  0.00    +0.000 NA
ATOM   1099  C4  A   B  32       0.046  -6.586  14.716  0.00  0.00    +0.000 A 
ATOM   1100  H   A   B  32       3.822  -5.307  14.853  0.00  0.00    +0.000 HD
ATOM   1101  H   A   B  32       3.449  -4.127  16.026  0.00  0.00    +0.000 HD
ENDBRANCH10891090
BRANCH10881102
ATOM   1102  O2' A   B  32      -3.723  -7.720  12.957  0.00  0.00    +0.000 OA
ATOM   1103  H   A   B  32      -3.902  -8.673  12.965  0.00  0.00    +0.000 HD
ENDBRANCH10881102
BRANCH10851104
ATOM   1104  C5' A   B  32      -0.970 -10.424  10.749  0.00  0.00    +0.000 C 
BRANCH11041105
ATOM   1105  O5' A   B  32       0.317  -9.838  10.590  0.00  0.00    +0.000 OA
BRANCH11051106
ATOM   1106  P   A   B  32       1.489 -10.617   9.831  0.00  0.00    +0.000 P 
ATOM   1107  OP1 A   B  32       0.950 -11.116   8.542  0.00  0.00    +0.000 OA
BRANCH11061108
ATOM   1108  OP2 A   B  32       2.699  -9.750   9.837  0.00  0.00    +0.000 OA
ATOM   1109  H   A   B  32       2.547  -8.978   9.270  0.00  0.00    +0.000 HD
ENDBRANCH11061108
BRANCH11061110
ATOM   1110  O3' A   B  31       1.753 -11.881  10.767  0.00  0.00    +0.000 OA
BRANCH11101113
ATOM   1111  C4' A   B  31       3.224 -13.005  12.375  0.00  0.00    +0.000 C 
ATOM   1112  O4' A   B  31       3.442 -12.861  13.805  0.00  0.00    +0.000 OA
ATOM   1113  C3' A   B  31       2.476 -11.739  11.989  0.00  0.00    +0.000 C 
ATOM   1114  C2' A   B  31       1.578 -11.521  13.199  0.00  0.00    +0.000 C 
ATOM   1115  C1' A   B  31       2.505 -11.946  14.345  0.00  0.00    +0.000 C 
BRANCH11151116
ATOM   1116  N9  A   B  31       3.235 -10.809  14.930  0.00  0.00    +0.000 N 
ATOM   1117  C8  A   B  31       4.533 -10.427  14.700  0.00  0.00    +0.000 A 
ATOM   1118  N7  A   B  31       4.897  -9.361  15.378  0.00  0.00    +0.000 NA
ATOM   1119  C5  A   B  31       3.763  -9.020  16.101  0.00  0.00    +0.000 A 
ATOM   1120  C6  A   B  31       3.494  -7.984  17.013  0.00  0.00    +0.000 A 
ATOM   1121  N6  A   B  31       4.396  -7.058  17.367  0.00  0.00    +0.000 N 
ATOM   1122  N1  A   B  31       2.261  -7.925  17.555  0.00  0.00    +0.000 NA
ATOM   1123  C2  A   B  31       1.358  -8.848  17.199  0.00  0.00    +0.000 A 
ATOM   1124  N3  A   B  31       1.491  -9.874  16.356  0.00  0.00    +0.000 NA
ATOM   1125  C4  A   B  31       2.732  -9.902  15.833  0.00  0.00    +0.000 A 
ATOM   1126  H   A   B  31       5.302  -7.082  16.984  0.00  0.00    +0.000 HD
ATOM   1127  H   A   B  31       4.152  -6.354  18.010  0.00  0.00    +0.000 HD
ENDBRANCH11151116
BRANCH11141128
ATOM   1128  O2' A   B  31       0.448 -12.379  13.174  0.00  0.00    +0.000 OA
ATOM   1129  H   A   B  31       0.743 -13.301  13.117  0.00  0.00    +0.000 HD
ENDBRANCH11141128
BRANCH11111130
ATOM   1130  C5' A   B  31       4.542 -13.234  11.670  0.00  0.00    +0.000 C 
BRANCH11301131
ATOM   1131  O5' A   B  31       5.443 -12.155  11.903  0.00  0.00    +0.000 OA
BRANCH11311132
ATOM   1132  P   A   B  31       6.989 -12.278  11.506  0.00  0.00    +0.000 P 
ATOM   1133  OP1 A   B  31       7.070 -12.768  10.108  0.00  0.00    +0.000 OA
BRANCH11321134
ATOM   1134  OP2 A   B  31       7.660 -11.003  11.880  0.00  0.00    +0.000 OA
ATOM   1135  H   A   B  31       7.340 -10.289  11.307  0.00  0.00    +0.000 HD
ENDBRANCH11321134
BRANCH11321136
ATOM   1136  O3' A   B  30       7.523 -13.441  12.453  0.00  0.00    +0.000 OA
BRANCH11361139
ATOM   1137  C4' A   B  30       8.849 -14.082  14.413  0.00  0.00    +0.000 C 
ATOM   1138  O4' A   B  30       8.600 -14.051  15.845  0.00  0.00    +0.000 OA
ATOM   1139  C3' A   B  30       7.761 -13.191  13.833  0.00  0.00    +0.000 C 
ATOM   1140  C2' A   B  30       6.573 -13.535  14.724  0.00  0.00    +0.000 C 
ATOM   1141  C1' A   B  30       7.253 -13.687  16.089  0.00  0.00    +0.000 C 
BRANCH11411142
ATOM   1142  N9  A   B  30       7.231 -12.434  16.863  0.00  0.00    +0.000 N 
ATOM   1143  C8  A   B  30       8.237 -11.514  17.026  0.00  0.00    +0.000 A 
ATOM   1144  N7  A   B  30       7.903 -10.493  17.782  0.00  0.00    +0.000 NA
ATOM   1145  C5  A   B  30       6.588 -10.758  18.142  0.00  0.00    +0.000 A 
ATOM   1146  C6  A   B  30       5.660 -10.062  18.935  0.00  0.00    +0.000 A 
ATOM   1147  N6  A   B  30       5.931  -8.894  19.539  0.00  0.00    +0.000 N 
ATOM   1148  N1  A   B  30       4.431 -10.599  19.091  0.00  0.00    +0.000 NA
ATOM   1149  C2  A   B  30       4.158 -11.762  18.487  0.00  0.00    +0.000 A 
ATOM   1150  N3  A   B  30       4.947 -12.517  17.717  0.00  0.00    +0.000 NA
ATOM   1151  C4  A   B  30       6.161 -11.950  17.581  0.00  0.00    +0.000 A 
ATOM   1152  H   A   B  30       6.820  -8.483  19.440  0.00  0.00    +0.000 HD
ATOM   1153  H   A   B  30       5.241  -8.448  20.081  0.00  0.00    +0.000 HD
ENDBRANCH11411142
BRANCH11401154
ATOM   1154  O2' A   B  30       5.985 -14.773  14.357  0.00  0.00    +0.000 OA
ATOM   1155  H   A   B  30       6.658 -15.471  14.382  0.00  0.00    +0.000 HD
ENDBRANCH11401154
BRANCH11371156
ATOM   1156  C5' A   B  30      10.274 -13.659  14.126  0.00  0.00    +0.000 C 
BRANCH11561157
ATOM   1157  O5' A   B  30      10.532 -12.349  14.631  0.00  0.00    +0.000 OA
BRANCH11571158
ATOM   1158  P   A   B  30      12.026 -11.784  14.710  0.00  0.00    +0.000 P 
ATOM   1159  OP1 A   B  30      12.685 -12.029  13.401  0.00  0.00    +0.000 OA
BRANCH11581160
ATOM   1160  OP2 A   B  30      11.964 -10.402  15.253  0.00  0.00    +0.000 OA
ATOM   1161  H   A   B  30      11.541  -9.818  14.604  0.00  0.00    +0.000 HD
ENDBRANCH11581160
BRANCH11581162
ATOM   1162  O3' A   B  29      12.727 -12.737  15.791  0.00  0.00    +0.000 OA
BRANCH11621165
ATOM   1163  C4' A   B  29      13.600 -12.993  18.068  0.00  0.00    +0.000 C 
ATOM   1164  O4' A   B  29      12.980 -13.260  19.356  0.00  0.00    +0.000 OA
ATOM   1165  C3' A   B  29      12.436 -12.590  17.177  0.00  0.00    +0.000 C 
ATOM   1166  C2' A   B  29      11.335 -13.525  17.663  0.00  0.00    +0.000 C 
ATOM   1167  C1' A   B  29      11.606 -13.549  19.172  0.00  0.00    +0.000 C 
BRANCH11671168
ATOM   1168  N9  A   B  29      10.812 -12.544  19.896  0.00  0.00    +0.000 N 
ATOM   1169  C8  A   B  29      11.210 -11.316  20.363  0.00  0.00    +0.000 A 
ATOM   1170  N7  A   B  29      10.259 -10.651  20.977  0.00  0.00    +0.000 NA
ATOM   1171  C5  A   B  29       9.158 -11.497  20.905  0.00  0.00    +0.000 A 
ATOM   1172  C6  A   B  29       7.836 -11.378  21.369  0.00  0.00    +0.000 A 
ATOM   1173  N6  A   B  29       7.377 -10.303  22.026  0.00  0.00    +0.000 N 
ATOM   1174  N1  A   B  29       6.990 -12.401  21.133  0.00  0.00    +0.000 NA
ATOM   1175  C2  A   B  29       7.446 -13.474  20.474  0.00  0.00    +0.000 A 
ATOM   1176  N3  A   B  29       8.668 -13.706  19.991  0.00  0.00    +0.000 NA
ATOM   1177  C4  A   B  29       9.485 -12.665  20.242  0.00  0.00    +0.000 A 
ATOM   1178  H   A   B  29       7.977  -9.545  22.209  0.00  0.00    +0.000 HD
ATOM   1179  H   A   B  29       6.440 -10.272  22.325  0.00  0.00    +0.000 HD
ENDBRANCH11671168
BRANCH11661180
ATOM   1180  O2' A   B  29      11.493 -14.833  17.143  0.00  0.00    +0.000 OA
ATOM   1181  H   A   B  29      12.372 -15.170  17.378  0.00  0.00    +0.000 HD
ENDBRANCH11661180
BRANCH11631182
ATOM   1182  C5' A   B  29      14.699 -11.965  18.230  0.00  0.00    +0.000 C 
BRANCH11821183
ATOM   1183  O5' A   B  29      14.185 -10.739  18.739  0.00  0.00    +0.000 OA
BRANCH11831184
ATOM   1184  P   A   B  29      15.169  -9.571  19.216  0.00  0.00    +0.000 P 
ATOM   1185  OP1 A   B  29      16.199  -9.374  18.165  0.00  0.00    +0.000 OA
BRANCH11841186
ATOM   1186  OP2 A   B  29      14.338  -8.418  19.653  0.00  0.00    +0.000 OA
ATOM   1187  H   A   B  29      13.897  -8.027  18.883  0.00  0.00    +0.000 HD
ENDBRANCH11841186
BRANCH11841188
ATOM   1188  O3' U   B  28      15.892 -10.204  20.513  0.00  0.00    +0.000 OA
BRANCH11881191
ATOM   1189  C4' U   B  28      16.119 -10.258  22.950  0.00  0.00    +0.000 C 
ATOM   1190  O4' U   B  28      15.335 -10.861  24.019  0.00  0.00    +0.000 OA
ATOM   1191  C3' U   B  28      15.197 -10.317  21.747  0.00  0.00    +0.000 C 
ATOM   1192  C2' U   B  28      14.519 -11.669  21.942  0.00  0.00    +0.000 C 
ATOM   1193  C1' U   B  28      14.338 -11.698  23.462  0.00  0.00    +0.000 C 
BRANCH11931194
ATOM   1194  N1  U   B  28      13.004 -11.203  23.878  0.00  0.00    +0.000 N 
ATOM   1195  C2  U   B  28      11.944 -12.090  23.798  0.00  0.00    +0.000 A 
ATOM   1196  O2  U   B  28      12.072 -13.238  23.408  0.00  0.00    +0.000 OA
ATOM   1197  N3  U   B  28      10.726 -11.584  24.193  0.00  0.00    +0.000 N 
ATOM   1198  C4  U   B  28      10.465 -10.308  24.645  0.00  0.00    +0.000 A 
ATOM   1199  O4  U   B  28       9.316 -10.001  24.962  0.00  0.00    +0.000 OA
ATOM   1200  C5  U   B  28      11.611  -9.451  24.696  0.00  0.00    +0.000 A 
ATOM   1201  C6  U   B  28      12.811  -9.915  24.320  0.00  0.00    +0.000 A 
ATOM   1202  H   U   B  28       9.959 -12.200  24.148  0.00  0.00    +0.000 HD
ENDBRANCH11931194
BRANCH11921203
ATOM   1203  O2' U   B  28      15.361 -12.737  21.556  0.00  0.00    +0.000 OA
ATOM   1204  H   U   B  28      16.194 -12.687  22.050  0.00  0.00    +0.000 HD
ENDBRANCH11921203
BRANCH11891205
ATOM   1205  C5' U   B  28      16.583  -8.879  23.365  0.00  0.00    +0.000 C 
BRANCH12051206
ATOM   1206  O5' U   B  28      15.484  -8.019  23.638  0.00  0.00    +0.000 OA
BRANCH12061207
ATOM   1207  P   U   B  28      15.701  -6.596  24.332  0.00  0.00    +0.000 P 
ATOM   1208  OP1 U   B  28      16.797  -5.893  23.622  0.00  0.00    +0.000 OA
BRANCH12071209
ATOM   1209  OP2 U   B  28      14.376  -5.939  24.464  0.00  0.00    +0.000 OA
ATOM   1210  H   U   B  28      14.043  -5.702  23.584  0.00  0.00    +0.000 HD
ENDBRANCH12071209
BRANCH12071211
ATOM   1211  O3' U   B  27      16.228  -6.977  25.806  0.00  0.00    +0.000 OA
BRANCH12111214
ATOM   1212  C4' U   B  27      15.734  -7.112  28.197  0.00  0.00    +0.000 C 
ATOM   1213  O4' U   B  27      15.062  -8.097  29.031  0.00  0.00    +0.000 OA
ATOM   1214  C3' U   B  27      15.340  -7.502  26.787  0.00  0.00    +0.000 C 
ATOM   1215  C2' U   B  27      15.356  -9.022  26.865  0.00  0.00    +0.000 C 
ATOM   1216  C1' U   B  27      14.788  -9.258  28.268  0.00  0.00    +0.000 C 
BRANCH12161217
ATOM   1217  N1  U   B  27      13.326  -9.487  28.254  0.00  0.00    +0.000 N 
ATOM   1218  C2  U   B  27      12.886 -10.757  27.920  0.00  0.00    +0.000 A 
ATOM   1219  O2  U   B  27      13.645 -11.669  27.644  0.00  0.00    +0.000 OA
ATOM   1220  N3  U   B  27      11.519 -10.920  27.921  0.00  0.00    +0.000 N 
ATOM   1221  C4  U   B  27      10.568  -9.964  28.211  0.00  0.00    +0.000 A 
ATOM   1222  O4  U   B  27       9.376 -10.262  28.169  0.00  0.00    +0.000 OA
ATOM   1223  C5  U   B  27      11.104  -8.678  28.543  0.00  0.00    +0.000 A 
ATOM   1224  C6  U   B  27      12.430  -8.489  28.552  0.00  0.00    +0.000 A 
ATOM   1225  H   U   B  27      11.184 -11.816  27.690  0.00  0.00    +0.000 HD
ENDBRANCH12161217
BRANCH12151226
ATOM   1226  O2' U   B  27      16.673  -9.535  26.810  0.00  0.00    +0.000 OA
ATOM   1227  H   U   B  27      17.203  -9.141  27.520  0.00  0.00    +0.000 HD
ENDBRANCH12151226
BRANCH12121228
ATOM   1228  C5' U   B  27      15.345  -5.718  28.631  0.00  0.00    +0.000 C 
BRANCH12281229
ATOM   1229  O5' U   B  27      13.944  -5.500  28.486  0.00  0.00    +0.000 OA
BRANCH12291230
ATOM   1230  P   U   B  27      13.251  -4.188  29.075  0.00  0.00    +0.000 P 
ATOM   1231  OP1 U   B  27      14.034  -3.008  28.634  0.00  0.00    +0.000 OA
BRANCH12301232
ATOM   1232  OP2 U   B  27      11.801  -4.262  28.771  0.00  0.00    +0.000 OA
ATOM   1233  H   U   B  27      11.666  -4.166  27.815  0.00  0.00    +0.000 HD
ENDBRANCH12301232
BRANCH12301234
ATOM   1234  O3' U   B  26      13.451  -4.350  30.663  0.00  0.00    +0.000 OA
BRANCH12341237
ATOM   1235  C4' U   B  26      12.395  -4.823  32.819  0.00  0.00    +0.000 C 
ATOM   1236  O4' U   B  26      12.041  -6.048  33.518  0.00  0.00    +0.000 OA
ATOM   1237  C3' U   B  26      12.664  -5.281  31.398  0.00  0.00    +0.000 C 
ATOM   1238  C2' U   B  26      13.359  -6.617  31.626  0.00  0.00    +0.000 C 
ATOM   1239  C1' U   B  26      12.577  -7.162  32.828  0.00  0.00    +0.000 C 
BRANCH12391240
ATOM   1240  N1  U   B  26      11.465  -8.048  32.421  0.00  0.00    +0.000 N 
ATOM   1241  C2  U   B  26      11.781  -9.361  32.110  0.00  0.00    +0.000 A 
ATOM   1242  O2  U   B  26      12.917  -9.798  32.159  0.00  0.00    +0.000 OA
ATOM   1243  N3  U   B  26      10.713 -10.146  31.737  0.00  0.00    +0.000 N 
ATOM   1244  C4  U   B  26       9.393  -9.759  31.642  0.00  0.00    +0.000 A 
ATOM   1245  O4  U   B  26       8.548 -10.580  31.293  0.00  0.00    +0.000 OA
ATOM   1246  C5  U   B  26       9.151  -8.390  31.978  0.00  0.00    +0.000 A 
ATOM   1247  C6  U   B  26      10.169  -7.602  32.346  0.00  0.00    +0.000 A 
ATOM   1248  H   U   B  26      10.913 -11.084  31.514  0.00  0.00    +0.000 HD
ENDBRANCH12391240
BRANCH12381249
ATOM   1249  O2' U   B  26      14.713  -6.442  32.000  0.00  0.00    +0.000 OA
ATOM   1250  H   U   B  26      14.760  -5.879  32.789  0.00  0.00    +0.000 HD
ENDBRANCH12381249
BRANCH12351251
ATOM   1251  C5' U   B  26      11.298  -3.798  32.982  0.00  0.00    +0.000 C 
BRANCH12511252
ATOM   1252  O5' U   B  26      10.085  -4.237  32.382  0.00  0.00    +0.000 OA
BRANCH12521253
ATOM   1253  P   U   B  26       8.736  -3.409  32.558  0.00  0.00    +0.000 P 
ATOM   1254  OP2 U   B  26       7.660  -4.123  31.823  0.00  0.00    +0.000 OA
BRANCH12531255
ATOM   1255  OP1 U   B  26       9.018  -1.984  32.246  0.00  0.00    +0.000 OA
ATOM   1256  H   U   B  26       9.200  -1.891  31.298  0.00  0.00    +0.000 HD
ENDBRANCH12531255
BRANCH12531257
ATOM   1257  O3' U   B  25       8.441  -3.518  34.132  0.00  0.00    +0.000 OA
BRANCH12571260
ATOM   1258  C4' U   B  25       7.064  -4.513  35.889  0.00  0.00    +0.000 C 
ATOM   1259  O4' U   B  25       7.090  -5.789  36.590  0.00  0.00    +0.000 OA
ATOM   1260  C3' U   B  25       7.961  -4.737  34.689  0.00  0.00    +0.000 C 
ATOM   1261  C2' U   B  25       9.061  -5.611  35.278  0.00  0.00    +0.000 C 
ATOM   1262  C1' U   B  25       8.257  -6.503  36.233  0.00  0.00    +0.000 C 
BRANCH12621263
ATOM   1263  N1  U   B  25       7.863  -7.785  35.608  0.00  0.00    +0.000 N 
ATOM   1264  C2  U   B  25       8.806  -8.799  35.587  0.00  0.00    +0.000 A 
ATOM   1265  O2  U   B  25       9.922  -8.676  36.055  0.00  0.00    +0.000 OA
ATOM   1266  N3  U   B  25       8.389  -9.971  34.996  0.00  0.00    +0.000 N 
ATOM   1267  C4  U   B  25       7.157 -10.223  34.433  0.00  0.00    +0.000 A 
ATOM   1268  O4  U   B  25       6.933 -11.328  33.938  0.00  0.00    +0.000 OA
ATOM   1269  C5  U   B  25       6.242  -9.126  34.492  0.00  0.00    +0.000 A 
ATOM   1270  C6  U   B  25       6.616  -7.974  35.064  0.00  0.00    +0.000 A 
ATOM   1271  H   U   B  25       9.041 -10.708  34.973  0.00  0.00    +0.000 HD
ENDBRANCH12621263
BRANCH12611272
ATOM   1272  O2' U   B  25       9.986  -4.847  36.031  0.00  0.00    +0.000 OA
ATOM   1273  H   U   B  25       9.514  -4.358  36.723  0.00  0.00    +0.000 HD
ENDBRANCH12611272
BRANCH12581274
ATOM   1274  C5' U   B  25       5.637  -4.126  35.578  0.00  0.00    +0.000 C 
BRANCH12741275
ATOM   1275  O5' U   B  25       5.021  -5.074  34.715  0.00  0.00    +0.000 OA
BRANCH12751276
ATOM   1276  P   U   B  25       3.453  -5.036  34.434  0.00  0.00    +0.000 P 
ATOM   1277  OP2 U   B  25       3.121  -6.161  33.521  0.00  0.00    +0.000 OA
BRANCH12761278
ATOM   1278  OP1 U   B  25       3.084  -3.647  34.055  0.00  0.00    +0.000 OA
ATOM   1279  H   U   B  25       3.462  -3.438  33.186  0.00  0.00    +0.000 HD
ENDBRANCH12761278
BRANCH12761280
ATOM   1280  O3' U   B  24       2.811  -5.340  35.871  0.00  0.00    +0.000 OA
BRANCH12801283
ATOM   1281  C4' U   B  24       1.666  -6.980  37.276  0.00  0.00    +0.000 C 
ATOM   1282  O4' U   B  24       2.118  -8.078  38.115  0.00  0.00    +0.000 OA
ATOM   1283  C3' U   B  24       2.871  -6.654  36.418  0.00  0.00    +0.000 C 
ATOM   1284  C2' U   B  24       4.017  -6.849  37.399  0.00  0.00    +0.000 C 
ATOM   1285  C1' U   B  24       3.532  -8.066  38.193  0.00  0.00    +0.000 C 
BRANCH12851286
ATOM   1286  N1  U   B  24       4.049  -9.343  37.648  0.00  0.00    +0.000 N 
ATOM   1287  C2  U   B  24       5.333  -9.718  38.006  0.00  0.00    +0.000 A 
ATOM   1288  O2  U   B  24       6.039  -9.047  38.735  0.00  0.00    +0.000 OA
ATOM   1289  N3  U   B  24       5.761 -10.913  37.474  0.00  0.00    +0.000 N 
ATOM   1290  C4  U   B  24       5.053 -11.750  36.637  0.00  0.00    +0.000 A 
ATOM   1291  O4  U   B  24       5.576 -12.793  36.240  0.00  0.00    +0.000 OA
ATOM   1292  C5  U   B  24       3.740 -11.293  36.316  0.00  0.00    +0.000 A 
ATOM   1293  C6  U   B  24       3.292 -10.133  36.818  0.00  0.00    +0.000 A 
ATOM   1294  H   U   B  24       6.670 -11.201  37.717  0.00  0.00    +0.000 HD
ENDBRANCH12851286
BRANCH12841295
ATOM   1295  O2' U   B  24       4.147  -5.749  38.278  0.00  0.00    +0.000 OA
ATOM   1296  H   U   B  24       3.308  -5.606  38.743  0.00  0.00    +0.000 HD
ENDBRANCH12841295
BRANCH12811297
ATOM   1297  C5' U   B  24       0.420  -7.388  36.527  0.00  0.00    +0.000 C 
BRANCH12971298
ATOM   1298  O5' U   B  24       0.683  -8.464  35.633  0.00  0.00    +0.000 OA
BRANCH12981299
ATOM   1299  P   U   B  24      -0.503  -9.226  34.890  0.00  0.00    +0.000 P 
ATOM   1300  OP2 U   B  24       0.093 -10.300  34.055  0.00  0.00    +0.000 OA
BRANCH12991301
ATOM   1301  OP1 U   B  24      -1.386  -8.213  34.258  0.00  0.00    +0.000 OA
ATOM   1302  H   U   B  24      -0.915  -7.786  33.525  0.00  0.00    +0.000 HD
ENDBRANCH12991301
BRANCH12991303
ATOM   1303  O3' U   B  23      -1.317  -9.906  36.092  0.00  0.00    +0.000 OA
BRANCH13031306
ATOM   1304  C4' U   B  23      -1.847 -12.004  37.225  0.00  0.00    +0.000 C 
ATOM   1305  O4' U   B  23      -1.202 -12.771  38.278  0.00  0.00    +0.000 OA
ATOM   1306  C3' U   B  23      -0.776 -11.034  36.771  0.00  0.00    +0.000 C 
ATOM   1307  C2' U   B  23      -0.094 -10.679  38.084  0.00  0.00    +0.000 C 
ATOM   1308  C1' U   B  23      -0.123 -12.027  38.815  0.00  0.00    +0.000 C 
BRANCH13081309
ATOM   1309  N1  U   B  23       1.126 -12.798  38.634  0.00  0.00    +0.000 N 
ATOM   1310  C2  U   B  23       2.215 -12.440  39.414  0.00  0.00    +0.000 A 
ATOM   1311  O2  U   B  23       2.181 -11.531  40.221  0.00  0.00    +0.000 OA
ATOM   1312  N3  U   B  23       3.349 -13.193  39.211  0.00  0.00    +0.000 N 
ATOM   1313  C4  U   B  23       3.503 -14.240  38.328  0.00  0.00    +0.000 A 
ATOM   1314  O4  U   B  23       4.589 -14.821  38.260  0.00  0.00    +0.000 OA
ATOM   1315  C5  U   B  23       2.336 -14.544  37.560  0.00  0.00    +0.000 A 
ATOM   1316  C6  U   B  23       1.215 -13.830  37.736  0.00  0.00    +0.000 A 
ATOM   1317  H   U   B  23       4.135 -12.958  39.755  0.00  0.00    +0.000 HD
ENDBRANCH13081309
BRANCH13071318
ATOM   1318  O2' U   B  23      -0.846  -9.738  38.827  0.00  0.00    +0.000 OA
ATOM   1319  H   U   B  23      -1.739 -10.085  38.978  0.00  0.00    +0.000 HD
ENDBRANCH13071318
BRANCH13041320
ATOM   1320  C5' U   B  23      -2.381 -12.933  36.162  0.00  0.00    +0.000 C 
BRANCH13201321
ATOM   1321  O5' U   B  23      -1.324 -13.616  35.496  0.00  0.00    +0.000 OA
BRANCH13211322
ATOM   1322  P   U   B  23      -1.632 -14.732  34.399  0.00  0.00    +0.000 P 
ATOM   1323  OP1 U   B  23      -2.612 -14.177  33.430  0.00  0.00    +0.000 OA
BRANCH13221324
ATOM   1324  OP2 U   B  23      -0.330 -15.260  33.909  0.00  0.00    +0.000 OA
ATOM   1325  H   U   B  23      -0.490 -15.943  33.239  0.00  0.00    +0.000 HD
ENDBRANCH13221324
BRANCH13221326
ATOM   1326  O3' C   B  22      -2.359 -15.890  35.234  0.00  0.00    +0.000 OA
BRANCH13261329
ATOM   1327  C4' C   B  22      -2.186 -18.114  36.236  0.00  0.00    +0.000 C 
ATOM   1328  O4' C   B  22      -1.621 -18.614  37.477  0.00  0.00    +0.000 OA
ATOM   1329  C3' C   B  22      -1.611 -16.720  36.114  0.00  0.00    +0.000 C 
ATOM   1330  C2' C   B  22      -1.641 -16.244  37.560  0.00  0.00    +0.000 C 
ATOM   1331  C1' C   B  22      -1.253 -17.525  38.304  0.00  0.00    +0.000 C 
BRANCH13311332
ATOM   1332  N1  C   B  22       0.202 -17.594  38.580  0.00  0.00    +0.000 N 
ATOM   1333  C2  C   B  22       0.708 -16.865  39.664  0.00  0.00    +0.000 A 
ATOM   1334  O2  C   B  22      -0.068 -16.192  40.356  0.00  0.00    +0.000 OA
ATOM   1335  N3  C   B  22       2.038 -16.910  39.930  0.00  0.00    +0.000 NA
ATOM   1336  C4  C   B  22       2.850 -17.642  39.164  0.00  0.00    +0.000 A 
ATOM   1337  N4  C   B  22       4.151 -17.655  39.466  0.00  0.00    +0.000 N 
ATOM   1338  C5  C   B  22       2.361 -18.388  38.057  0.00  0.00    +0.000 A 
ATOM   1339  C6  C   B  22       1.043 -18.337  37.803  0.00  0.00    +0.000 A 
ATOM   1340  H   C   B  22       4.777 -18.184  38.922  0.00  0.00    +0.000 HD
ATOM   1341  H   C   B  22       4.483 -17.135  40.233  0.00  0.00    +0.000 HD
ENDBRANCH13311332
BRANCH13301342
ATOM   1342  O2' C   B  22      -2.943 -15.860  37.957  0.00  0.00    +0.000 OA
ATOM   1343  H   C   B  22      -3.555 -16.599  37.816  0.00  0.00    +0.000 HD
ENDBRANCH13301342
BRANCH13271344
ATOM   1344  C5' C   B  22      -1.867 -19.058  35.101  0.00  0.00    +0.000 C 
BRANCH13441345
ATOM   1345  O5' C   B  22      -0.463 -19.190  34.915  0.00  0.00    +0.000 OA
BRANCH13451346
ATOM   1346  P   C   B  22       0.136 -20.297  33.941  0.00  0.00    +0.000 P 
ATOM   1347  OP1 C   B  22      -0.571 -20.199  32.636  0.00  0.00    +0.000 OA
BRANCH13461348
ATOM   1348  OP2 C   B  22       1.620 -20.189  33.985  0.00  0.00    +0.000 OA
ATOM   1349  H   C   B  22       2.010 -20.855  33.398  0.00  0.00    +0.000 HD
ENDBRANCH13461348
BRANCH13461350
ATOM   1350  O3' A   B  21      -0.287 -21.687  34.615  0.00  0.00    +0.000 OA
BRANCH13501353
ATOM   1351  C4' A   B  21       0.423 -23.610  35.959  0.00  0.00    +0.000 C 
ATOM   1352  O4' A   B  21       0.575 -23.826  37.387  0.00  0.00    +0.000 OA
ATOM   1353  C3' A   B  21       0.319 -22.101  35.830  0.00  0.00    +0.000 C 
ATOM   1354  C2' A   B  21      -0.499 -21.740  37.063  0.00  0.00    +0.000 C 
ATOM   1355  C1' A   B  21       0.088 -22.699  38.095  0.00  0.00    +0.000 C 
BRANCH13551356
ATOM   1356  N9  A   B  21       1.204 -22.084  38.838  0.00  0.00    +0.000 N 
ATOM   1357  C8  A   B  21       2.552 -22.267  38.652  0.00  0.00    +0.000 A 
ATOM   1358  N7  A   B  21       3.298 -21.565  39.476  0.00  0.00    +0.000 NA
ATOM   1359  C5  A   B  21       2.377 -20.875  40.255  0.00  0.00    +0.000 A 
ATOM   1360  C6  A   B  21       2.527 -19.962  41.312  0.00  0.00    +0.000 A 
ATOM   1361  N6  A   B  21       3.716 -19.566  41.786  0.00  0.00    +0.000 N 
ATOM   1362  N1  A   B  21       1.406 -19.458  41.871  0.00  0.00    +0.000 NA
ATOM   1363  C2  A   B  21       0.218 -19.851  41.392  0.00  0.00    +0.000 A 
ATOM   1364  N3  A   B  21      -0.050 -20.706  40.403  0.00  0.00    +0.000 NA
ATOM   1365  C4  A   B  21       1.086 -21.185  39.870  0.00  0.00    +0.000 A 
ATOM   1366  H   A   B  21       4.546 -19.921  41.393  0.00  0.00    +0.000 HD
ATOM   1367  H   A   B  21       3.760 -18.920  42.528  0.00  0.00    +0.000 HD
ENDBRANCH13551356
BRANCH13541368
ATOM   1368  O2' A   B  21      -1.872 -22.036  36.886  0.00  0.00    +0.000 OA
ATOM   1369  H   A   B  21      -1.974 -22.973  36.656  0.00  0.00    +0.000 HD
ENDBRANCH13541368
BRANCH13511370
ATOM   1370  C5' A   B  21       1.570 -24.257  35.220  0.00  0.00    +0.000 C 
BRANCH13701371
ATOM   1371  O5' A   B  21       2.825 -23.742  35.656  0.00  0.00    +0.000 OA
BRANCH13711372
ATOM   1372  P   A   B  21       4.185 -24.513  35.330  0.00  0.00    +0.000 P 
ATOM   1373  OP1 A   B  21       4.202 -24.827  33.879  0.00  0.00    +0.000 OA
BRANCH13721374
ATOM   1374  OP2 A   B  21       5.306 -23.736  35.927  0.00  0.00    +0.000 OA
ATOM   1375  H   A   B  21       5.405 -22.895  35.454  0.00  0.00    +0.000 HD
ENDBRANCH13721374
BRANCH13721376
ATOM   1376  O3' A   B  20       4.038 -25.894  36.123  0.00  0.00    +0.000 OA
BRANCH13761379
ATOM   1377  C4' A   B  20       4.813 -27.233  38.020  0.00  0.00    +0.000 C 
ATOM   1378  O4' A   B  20       4.440 -27.288  39.423  0.00  0.00    +0.000 OA
ATOM   1379  C3' A   B  20       4.204 -25.928  37.536  0.00  0.00    +0.000 C 
ATOM   1380  C2' A   B  20       2.888 -25.890  38.303  0.00  0.00    +0.000 C 
ATOM   1381  C1' A   B  20       3.315 -26.460  39.655  0.00  0.00    +0.000 C 
BRANCH13811382
ATOM   1382  N9  A   B  20       3.696 -25.401  40.610  0.00  0.00    +0.000 N 
ATOM   1383  C8  A   B  20       4.957 -24.973  40.943  0.00  0.00    +0.000 A 
ATOM   1384  N7  A   B  20       4.966 -24.004  41.831  0.00  0.00    +0.000 NA
ATOM   1385  C5  A   B  20       3.621 -23.780  42.099  0.00  0.00    +0.000 A 
ATOM   1386  C6  A   B  20       2.961 -22.882  42.956  0.00  0.00    +0.000 A 
ATOM   1387  N6  A   B  20       3.599 -21.996  43.735  0.00  0.00    +0.000 N 
ATOM   1388  N1  A   B  20       1.612 -22.917  42.988  0.00  0.00    +0.000 NA
ATOM   1389  C2  A   B  20       0.974 -23.800  42.207  0.00  0.00    +0.000 A 
ATOM   1390  N3  A   B  20       1.483 -24.698  41.361  0.00  0.00    +0.000 NA
ATOM   1391  C4  A   B  20       2.828 -24.634  41.353  0.00  0.00    +0.000 A 
ATOM   1392  H   A   B  20       4.583 -21.953  43.728  0.00  0.00    +0.000 HD
ATOM   1393  H   A   B  20       3.084 -21.389  44.314  0.00  0.00    +0.000 HD
ENDBRANCH13811382
BRANCH13801394
ATOM   1394  O2' A   B  20       1.920 -26.748  37.721  0.00  0.00    +0.000 OA
ATOM   1395  H   A   B  20       2.275 -27.649  37.671  0.00  0.00    +0.000 HD
ENDBRANCH13801394
BRANCH13771396
ATOM   1396  C5' A   B  20       6.313 -27.350  37.878  0.00  0.00    +0.000 C 
BRANCH13961397
ATOM   1397  O5' A   B  20       6.983 -26.276  38.538  0.00  0.00    +0.000 OA
BRANCH13971398
ATOM   1398  P   A   B  20       8.556 -26.328  38.790  0.00  0.00    +0.000 P 
ATOM   1399  OP1 A   B  20       9.224 -26.629  37.500  0.00  0.00    +0.000 OA
BRANCH13981400
ATOM   1400  OP2 A   B  20       8.939 -25.106  39.549  0.00  0.00    +0.000 OA
ATOM   1401  H   A   B  20       8.829 -24.326  38.983  0.00  0.00    +0.000 HD
ENDBRANCH13981400
BRANCH13981402
ATOM   1402  O3' A   B  19       8.740 -27.605  39.731  0.00  0.00    +0.000 OA
BRANCH14021405
ATOM   1403  C4' A   B  19       9.316 -28.437  41.956  0.00  0.00    +0.000 C 
ATOM   1404  O4' A   B  19       8.570 -28.595  43.191  0.00  0.00    +0.000 OA
ATOM   1405  C3' A   B  19       8.448 -27.513  41.121  0.00  0.00    +0.000 C 
ATOM   1406  C2' A   B  19       7.041 -27.986  41.482  0.00  0.00    +0.000 C 
ATOM   1407  C1' A   B  19       7.205 -28.287  42.971  0.00  0.00    +0.000 C 
BRANCH14071408
ATOM   1408  N9  A   B  19       6.840 -27.140  43.818  0.00  0.00    +0.000 N 
ATOM   1409  C8  A   B  19       7.673 -26.266  44.475  0.00  0.00    +0.000 A 
ATOM   1410  N7  A   B  19       7.037 -25.342  45.159  0.00  0.00    +0.000 NA
ATOM   1411  C5  A   B  19       5.693 -25.626  44.937  0.00  0.00    +0.000 A 
ATOM   1412  C6  A   B  19       4.508 -25.016  45.385  0.00  0.00    +0.000 A 
ATOM   1413  N6  A   B  19       4.484 -23.939  46.184  0.00  0.00    +0.000 N 
ATOM   1414  N1  A   B  19       3.333 -25.546  44.984  0.00  0.00    +0.000 NA
ATOM   1415  C2  A   B  19       3.356 -26.624  44.182  0.00  0.00    +0.000 A 
ATOM   1416  N3  A   B  19       4.404 -27.288  43.693  0.00  0.00    +0.000 NA
ATOM   1417  C4  A   B  19       5.558 -26.731  44.113  0.00  0.00    +0.000 A 
ATOM   1418  H   A   B  19       5.328 -23.534  46.490  0.00  0.00    +0.000 HD
ATOM   1419  H   A   B  19       3.623 -23.553  46.465  0.00  0.00    +0.000 HD
ENDBRANCH14071408
BRANCH14061420
ATOM   1420  O2' A   B  19       6.702 -29.182  40.799  0.00  0.00    +0.000 OA
ATOM   1421  H   A   B  19       7.366 -29.863  40.990  0.00  0.00    +0.000 HD
ENDBRANCH14061420
BRANCH14031422
ATOM   1422  C5' A   B  19      10.708 -27.930  42.253  0.00  0.00    +0.000 C 
BRANCH14221423
ATOM   1423  O5' A   B  19      10.678 -26.620  42.810  0.00  0.00    +0.000 OA
BRANCH14231424
ATOM   1424  P   A   B  19      12.018 -25.885  43.254  0.00  0.00    +0.000 P 
ATOM   1425  OP1 A   B  19      12.974 -25.940  42.119  0.00  0.00    +0.000 OA
BRANCH14241426
ATOM   1426  OP2 A   B  19      11.654 -24.572  43.849  0.00  0.00    +0.000 OA
ATOM   1427  H   A   B  19      11.296 -23.992  43.159  0.00  0.00    +0.000 HD
ENDBRANCH14241426
BRANCH14241428
ATOM   1428  O3' G   B  18      12.598 -26.806  44.407  0.00  0.00    +0.000 OA
BRANCH14281431
ATOM   1429  C4' G   B  18      13.062 -26.976  46.798  0.00  0.00    +0.000 C 
ATOM   1430  O4' G   B  18      12.307 -27.459  47.936  0.00  0.00    +0.000 OA
ATOM   1431  C3' G   B  18      12.018 -26.783  45.710  0.00  0.00    +0.000 C 
ATOM   1432  C2' G   B  18      11.062 -27.938  45.981  0.00  0.00    +0.000 C 
ATOM   1433  C1' G   B  18      11.055 -27.969  47.508  0.00  0.00    +0.000 C 
BRANCH14331434
ATOM   1434  N9  G   B  18       9.997 -27.099  48.062  0.00  0.00    +0.000 N 
ATOM   1435  C8  G   B  18      10.169 -25.957  48.812  0.00  0.00    +0.000 A 
ATOM   1436  N7  G   B  18       9.039 -25.394  49.152  0.00  0.00    +0.000 NA
ATOM   1437  C5  G   B  18       8.062 -26.219  48.596  0.00  0.00    +0.000 A 
ATOM   1438  C6  G   B  18       6.647 -26.124  48.635  0.00  0.00    +0.000 A 
ATOM   1439  O6  G   B  18       5.944 -25.261  49.179  0.00  0.00    +0.000 OA
ATOM   1440  N1  G   B  18       6.039 -27.167  47.940  0.00  0.00    +0.000 NA
ATOM   1441  C2  G   B  18       6.713 -28.175  47.295  0.00  0.00    +0.000 A 
ATOM   1442  N2  G   B  18       5.960 -29.096  46.676  0.00  0.00    +0.000 N 
ATOM   1443  N3  G   B  18       8.033 -28.281  47.252  0.00  0.00    +0.000 N 
ATOM   1444  C4  G   B  18       8.640 -27.275  47.923  0.00  0.00    +0.000 A 
ATOM   1445  H   G   B  18       6.389 -29.842  46.197  0.00  0.00    +0.000 HD
ATOM   1446  H   G   B  18       4.978 -29.026  46.700  0.00  0.00    +0.000 HD
ATOM   1447  H   G   B  18       8.514 -29.004  46.788  0.00  0.00    +0.000 HD
ENDBRANCH14331434
BRANCH14321448
ATOM   1448  O2' G   B  18      11.587 -29.170  45.503  0.00  0.00    +0.000 OA
ATOM   1449  H   G   B  18      12.457 -29.327  45.901  0.00  0.00    +0.000 HD
ENDBRANCH14321448
BRANCH14291450
ATOM   1450  C5' G   B  18      13.826 -25.731  47.193  0.00  0.00    +0.000 C 
BRANCH14501451
ATOM   1451  O5' G   B  18      15.074 -26.072  47.780  0.00  0.00    +0.000 OA
BRANCH14511452
ATOM   1452  P   G   B  18      15.327 -25.898  49.354  0.00  0.00    +0.000 P 
ATOM   1453  OP1 G   B  18      16.077 -24.629  49.564  0.00  0.00    +0.000 OA
BRANCH14521454
ATOM   1454  OP2 G   B  18      14.051 -26.100  50.073  0.00  0.00    +0.000 OA
ATOM   1455  H   G   B  18      13.454 -25.359  49.886  0.00  0.00    +0.000 HD
ENDBRANCH14521454
BRANCH14521456
ATOM   1456  O3' C   B  17      16.293 -27.105  49.662  0.00  0.00    +0.000 OA
BRANCH14561459
ATOM   1457  C4' C   B  17      16.593 -29.366  50.523  0.00  0.00    +0.000 C 
ATOM   1458  O4' C   B  17      16.388 -30.687  49.959  0.00  0.00    +0.000 OA
ATOM   1459  C3' C   B  17      15.820 -28.448  49.593  0.00  0.00    +0.000 C 
ATOM   1460  C2' C   B  17      16.050 -29.098  48.231  0.00  0.00    +0.000 C 
ATOM   1461  C1' C   B  17      16.032 -30.584  48.595  0.00  0.00    +0.000 C 
BRANCH14611462
ATOM   1462  N1  C   B  17      14.709 -31.218  48.396  0.00  0.00    +0.000 N 
ATOM   1463  C2  C   B  17      14.341 -31.612  47.105  0.00  0.00    +0.000 A 
ATOM   1464  O2  C   B  17      15.131 -31.420  46.166  0.00  0.00    +0.000 OA
ATOM   1465  N3  C   B  17      13.130 -32.198  46.912  0.00  0.00    +0.000 NA
ATOM   1466  C4  C   B  17      12.304 -32.395  47.942  0.00  0.00    +0.000 A 
ATOM   1467  N4  C   B  17      11.123 -32.974  47.704  0.00  0.00    +0.000 N 
ATOM   1468  C5  C   B  17      12.654 -32.005  49.263  0.00  0.00    +0.000 A 
ATOM   1469  C6  C   B  17      13.856 -31.427  49.443  0.00  0.00    +0.000 A 
ATOM   1470  H   C   B  17      10.883 -33.243  46.788  0.00  0.00    +0.000 HD
ATOM   1471  H   C   B  17      10.494 -33.131  48.445  0.00  0.00    +0.000 HD
ENDBRANCH14611462
BRANCH14601472
ATOM   1472  O2' C   B  17      17.316 -28.761  47.700  0.00  0.00    +0.000 OA
ATOM   1473  H   C   B  17      18.009 -29.012  48.331  0.00  0.00    +0.000 HD
ENDBRANCH14601472
BRANCH14571474
ATOM   1474  C5' C   B  17      16.153 -29.352  51.968  0.00  0.00    +0.000 C 
BRANCH14741475
ATOM   1475  O5' C   B  17      14.757 -29.625  52.070  0.00  0.00    +0.000 OA
BRANCH14751476
ATOM   1476  P   C   B  17      14.061 -29.796  53.500  0.00  0.00    +0.000 P 
ATOM   1477  OP2 C   B  17      12.624 -30.109  53.271  0.00  0.00    +0.000 OA
BRANCH14761478
ATOM   1478  OP1 C   B  17      14.439 -28.644  54.339  0.00  0.00    +0.000 OA
ATOM   1479  H   C   B  17      14.018 -27.841  53.995  0.00  0.00    +0.000 HD
ENDBRANCH14761478
BRANCH14761480
ATOM   1480  O3' C   B  16      14.772 -31.106  54.094  0.00  0.00    +0.000 OA
BRANCH14801483
ATOM   1481  C4' C   B  16      14.548 -33.471  54.658  0.00  0.00    +0.000 C 
ATOM   1482  O4' C   B  16      14.786 -34.701  53.932  0.00  0.00    +0.000 OA
ATOM   1483  C3' C   B  16      14.487 -32.401  53.580  0.00  0.00    +0.000 C 
ATOM   1484  C2' C   B  16      15.527 -32.891  52.585  0.00  0.00    +0.000 C 
ATOM   1485  C1' C   B  16      15.331 -34.406  52.661  0.00  0.00    +0.000 C 
BRANCH14851486
ATOM   1486  N1  C   B  16      14.428 -34.925  51.611  0.00  0.00    +0.000 N 
ATOM   1487  C2  C   B  16      14.949 -35.159  50.340  0.00  0.00    +0.000 A 
ATOM   1488  O2  C   B  16      16.148 -34.927  50.119  0.00  0.00    +0.000 OA
ATOM   1489  N3  C   B  16      14.129 -35.642  49.370  0.00  0.00    +0.000 NA
ATOM   1490  C4  C   B  16      12.845 -35.888  49.638  0.00  0.00    +0.000 A 
ATOM   1491  N4  C   B  16      12.078 -36.362  48.654  0.00  0.00    +0.000 N 
ATOM   1492  C5  C   B  16      12.292 -35.660  50.927  0.00  0.00    +0.000 A 
ATOM   1493  C6  C   B  16      13.114 -35.184  51.878  0.00  0.00    +0.000 A 
ATOM   1494  H   C   B  16      12.463 -36.519  47.762  0.00  0.00    +0.000 HD
ATOM   1495  H   C   B  16      11.127 -36.554  48.820  0.00  0.00    +0.000 HD
ENDBRANCH14851486
BRANCH14841496
ATOM   1496  O2' C   B  16      16.836 -32.564  52.997  0.00  0.00    +0.000 OA
ATOM   1497  H   C   B  16      16.997 -32.928  53.882  0.00  0.00    +0.000 HD
ENDBRANCH14841496
BRANCH14811498
ATOM   1498  C5' C   B  16      13.307 -33.623  55.496  0.00  0.00    +0.000 C 
BRANCH14981499
ATOM   1499  O5' C   B  16      12.213 -33.967  54.667  0.00  0.00    +0.000 OA
BRANCH14991500
ATOM   1500  P   C   B  16      10.932 -34.730  55.236  0.00  0.00    +0.000 P 
ATOM   1501  OP1 C   B  16      10.627 -35.877  54.337  0.00  0.00    +0.000 OA
BRANCH15001502
ATOM   1502  OP2 C   B  16      11.150 -34.997  56.687  0.00  0.00    +0.000 OA
ATOM   1503  H   C   B  16      11.813 -35.698  56.791  0.00  0.00    +0.000 HD
ENDBRANCH15001502
BRANCH15001504
ATOM   1504  O3' U   B  15       9.881 -33.618  55.062  0.00  0.00    +0.000 OA
BRANCH15041507
ATOM   1505  C4' U   B  15       8.320 -33.696  53.233  0.00  0.00    +0.000 C 
ATOM   1506  O4' U   B  15       7.906 -32.316  53.037  0.00  0.00    +0.000 OA
ATOM   1507  C3' U   B  15       8.529 -33.871  54.736  0.00  0.00    +0.000 C 
ATOM   1508  C2' U   B  15       7.660 -32.778  55.322  0.00  0.00    +0.000 C 
ATOM   1509  C1' U   B  15       7.831 -31.668  54.292  0.00  0.00    +0.000 C 
BRANCH15091510
ATOM   1510  N1  U   B  15       6.708 -30.708  54.273  0.00  0.00    +0.000 N 
ATOM   1511  C2  U   B  15       6.980 -29.379  54.561  0.00  0.00    +0.000 A 
ATOM   1512  O2  U   B  15       8.104 -28.971  54.819  0.00  0.00    +0.000 OA
ATOM   1513  N3  U   B  15       5.889 -28.544  54.538  0.00  0.00    +0.000 N 
ATOM   1514  C4  U   B  15       4.585 -28.891  54.257  0.00  0.00    +0.000 A 
ATOM   1515  O4  U   B  15       3.716 -28.027  54.275  0.00  0.00    +0.000 OA
ATOM   1516  C5  U   B  15       4.385 -30.279  53.969  0.00  0.00    +0.000 A 
ATOM   1517  C6  U   B  15       5.429 -31.122  53.985  0.00  0.00    +0.000 A 
ATOM   1518  H   U   B  15       6.057 -27.596  54.744  0.00  0.00    +0.000 HD
ENDBRANCH15091510
BRANCH15081519
ATOM   1519  O2' U   B  15       8.044 -32.343  56.619  0.00  0.00    +0.000 OA
ATOM   1520  H   U   B  15       8.957 -32.017  56.594  0.00  0.00    +0.000 HD
ENDBRANCH15081519
BRANCH15051521
ATOM   1521  C5' U   B  15       7.284 -34.621  52.625  0.00  0.00    +0.000 C 
BRANCH15211522
ATOM   1522  O5' U   B  15       5.985 -34.347  53.138  0.00  0.00    +0.000 OA
BRANCH15221523
ATOM   1523  P   U   B  15       4.699 -35.070  52.540  0.00  0.00    +0.000 P 
ATOM   1524  OP1 U   B  15       4.900 -36.536  52.624  0.00  0.00    +0.000 OA
BRANCH15231525
ATOM   1525  OP2 U   B  15       3.500 -34.460  53.172  0.00  0.00    +0.000 OA
ATOM   1526  H   U   B  15       2.700 -34.884  52.824  0.00  0.00    +0.000 HD
ENDBRANCH15231525
BRANCH15231527
ATOM   1527  O3' A   B  14       4.722 -34.647  50.979  0.00  0.00    +0.000 OA
BRANCH15271530
ATOM   1528  C4' A   B  14       3.594 -33.342  49.252  0.00  0.00    +0.000 C 
ATOM   1529  O4' A   B  14       3.777 -32.000  48.736  0.00  0.00    +0.000 OA
ATOM   1530  C3' A   B  14       4.367 -33.335  50.559  0.00  0.00    +0.000 C 
ATOM   1531  C2' A   B  14       5.570 -32.470  50.217  0.00  0.00    +0.000 C 
ATOM   1532  C1' A   B  14       4.944 -31.424  49.297  0.00  0.00    +0.000 C 
BRANCH15321533
ATOM   1533  N9  A   B  14       4.576 -30.189  50.005  0.00  0.00    +0.000 N 
ATOM   1534  C8  A   B  14       3.324 -29.750  50.354  0.00  0.00    +0.000 A 
ATOM   1535  N7  A   B  14       3.324 -28.596  50.979  0.00  0.00    +0.000 NA
ATOM   1536  C5  A   B  14       4.670 -28.255  51.046  0.00  0.00    +0.000 A 
ATOM   1537  C6  A   B  14       5.340 -27.143  51.589  0.00  0.00    +0.000 A 
ATOM   1538  N6  A   B  14       4.716 -26.126  52.199  0.00  0.00    +0.000 N 
ATOM   1539  N1  A   B  14       6.683 -27.105  51.493  0.00  0.00    +0.000 NA
ATOM   1540  C2  A   B  14       7.306 -28.124  50.885  0.00  0.00    +0.000 A 
ATOM   1541  N3  A   B  14       6.790 -29.219  50.333  0.00  0.00    +0.000 NA
ATOM   1542  C4  A   B  14       5.448 -29.222  50.452  0.00  0.00    +0.000 A 
ATOM   1543  H   A   B  14       3.735 -26.129  52.282  0.00  0.00    +0.000 HD
ATOM   1544  H   A   B  14       5.239 -25.376  52.564  0.00  0.00    +0.000 HD
ENDBRANCH15321533
BRANCH15311545
ATOM   1545  O2' A   B  14       6.548 -33.194  49.500  0.00  0.00    +0.000 OA
ATOM   1546  H   A   B  14       6.150 -33.570  48.700  0.00  0.00    +0.000 HD
ENDBRANCH15311545
BRANCH15281547
ATOM   1547  C5' A   B  14       2.117 -33.662  49.352  0.00  0.00    +0.000 C 
BRANCH15471548
ATOM   1548  O5' A   B  14       1.435 -32.696  50.148  0.00  0.00    +0.000 OA
BRANCH15481549
ATOM   1549  P   A   B  14      -0.158 -32.721  50.273  0.00  0.00    +0.000 P 
ATOM   1550  OP1 A   B  14      -0.586 -34.113  50.545  0.00  0.00    +0.000 OA
BRANCH15491551
ATOM   1551  OP2 A   B  14      -0.549 -31.636  51.211  0.00  0.00    +0.000 OA
ATOM   1552  H   A   B  14      -0.194 -30.791  50.894  0.00  0.00    +0.000 HD
ENDBRANCH15491551
BRANCH15491553
ATOM   1553  O3' C   B  13      -0.662 -32.307  48.777  0.00  0.00    +0.000 OA
BRANCH15531556
ATOM   1554  C4' C   B  13      -1.466 -30.587  47.225  0.00  0.00    +0.000 C 
ATOM   1555  O4' C   B  13      -0.825 -29.453  46.577  0.00  0.00    +0.000 OA
ATOM   1556  C3' C   B  13      -0.459 -30.992  48.281  0.00  0.00    +0.000 C 
ATOM   1557  C2' C   B  13       0.849 -30.841  47.514  0.00  0.00    +0.000 C 
ATOM   1558  C1' C   B  13       0.579 -29.571  46.712  0.00  0.00    +0.000 C 
BRANCH15581559
ATOM   1559  N1  C   B  13       1.128 -28.372  47.386  0.00  0.00    +0.000 N 
ATOM   1560  C2  C   B  13       2.510 -28.142  47.287  0.00  0.00    +0.000 A 
ATOM   1561  O2  C   B  13       3.210 -28.933  46.639  0.00  0.00    +0.000 OA
ATOM   1562  N3  C   B  13       3.051 -27.060  47.905  0.00  0.00    +0.000 NA
ATOM   1563  C4  C   B  13       2.271 -26.229  48.596  0.00  0.00    +0.000 A 
ATOM   1564  N4  C   B  13       2.848 -25.180  49.185  0.00  0.00    +0.000 N 
ATOM   1565  C5  C   B  13       0.867 -26.440  48.714  0.00  0.00    +0.000 A 
ATOM   1566  C6  C   B  13       0.343 -27.516  48.099  0.00  0.00    +0.000 A 
ATOM   1567  H   C   B  13       3.819 -25.040  49.100  0.00  0.00    +0.000 HD
ATOM   1568  H   C   B  13       2.303 -24.546  49.705  0.00  0.00    +0.000 HD
ENDBRANCH15581559
BRANCH15571569
ATOM   1569  O2' C   B  13       1.063 -31.916  46.626  0.00  0.00    +0.000 OA
ATOM   1570  H   C   B  13       0.308 -31.991  46.021  0.00  0.00    +0.000 HD
ENDBRANCH15571569
BRANCH15541571
ATOM   1571  C5' C   B  13      -2.850 -30.212  47.706  0.00  0.00    +0.000 C 
BRANCH15711572
ATOM   1572  O5' C   B  13      -2.839 -29.038  48.508  0.00  0.00    +0.000 OA
BRANCH15721573
ATOM   1573  P   C   B  13      -4.203 -28.298  48.885  0.00  0.00    +0.000 P 
ATOM   1574  OP1 C   B  13      -5.210 -29.322  49.251  0.00  0.00    +0.000 OA
BRANCH15731575
ATOM   1575  OP2 C   B  13      -3.881 -27.211  49.845  0.00  0.00    +0.000 OA
ATOM   1576  H   C   B  13      -3.209 -26.627  49.459  0.00  0.00    +0.000 HD
ENDBRANCH15731575
BRANCH15731577
ATOM   1577  O3' U   B  12      -4.667 -27.622  47.486  0.00  0.00    +0.000 OA
BRANCH15771580
ATOM   1578  C4' U   B  12      -4.823 -25.583  46.138  0.00  0.00    +0.000 C 
ATOM   1579  O4' U   B  12      -3.878 -24.866  45.298  0.00  0.00    +0.000 OA
ATOM   1580  C3' U   B  12      -3.945 -26.532  46.928  0.00  0.00    +0.000 C 
ATOM   1581  C2' U   B  12      -2.920 -26.956  45.877  0.00  0.00    +0.000 C 
ATOM   1582  C1' U   B  12      -2.704 -25.638  45.135  0.00  0.00    +0.000 C 
BRANCH15821583
ATOM   1583  N1  U   B  12      -1.547 -24.887  45.674  0.00  0.00    +0.000 N 
ATOM   1584  C2  U   B  12      -0.287 -25.264  45.236  0.00  0.00    +0.000 A 
ATOM   1585  O2  U   B  12      -0.111 -26.168  44.437  0.00  0.00    +0.000 OA
ATOM   1586  N3  U   B  12       0.761 -24.544  45.766  0.00  0.00    +0.000 N 
ATOM   1587  C4  U   B  12       0.679 -23.507  46.673  0.00  0.00    +0.000 A 
ATOM   1588  O4  U   B  12       1.712 -22.957  47.062  0.00  0.00    +0.000 OA
ATOM   1589  C5  U   B  12      -0.654 -23.179  47.082  0.00  0.00    +0.000 A 
ATOM   1590  C6  U   B  12      -1.697 -23.864  46.581  0.00  0.00    +0.000 A 
ATOM   1591  H   U   B  12       1.664 -24.796  45.466  0.00  0.00    +0.000 HD
ENDBRANCH15821583
BRANCH15811592
ATOM   1592  O2' U   B  12      -3.448 -27.915  44.984  0.00  0.00    +0.000 OA
ATOM   1593  H   U   B  12      -4.252 -27.564  44.570  0.00  0.00    +0.000 HD
ENDBRANCH15811592
BRANCH15781594
ATOM   1594  C5' U   B  12      -5.642 -24.607  46.949  0.00  0.00    +0.000 C 
BRANCH15941595
ATOM   1595  O5' U   B  12      -4.828 -23.826  47.819  0.00  0.00    +0.000 OA
BRANCH15951596
ATOM   1596  P   U   B  12      -5.422 -22.582  48.609  0.00  0.00    +0.000 P 
ATOM   1597  OP1 U   B  12      -6.706 -22.997  49.234  0.00  0.00    +0.000 OA
BRANCH15961598
ATOM   1598  OP2 U   B  12      -4.348 -22.009  49.456  0.00  0.00    +0.000 OA
ATOM   1599  H   U   B  12      -3.582 -21.791  48.903  0.00  0.00    +0.000 HD
ENDBRANCH15961598
BRANCH15961600
ATOM   1600  O3' U   B  11      -5.764 -21.529  47.430  0.00  0.00    +0.000 OA
BRANCH16001603
ATOM   1601  C4' U   B  11      -5.148 -19.454  46.305  0.00  0.00    +0.000 C 
ATOM   1602  O4' U   B  11      -4.193 -19.121  45.264  0.00  0.00    +0.000 OA
ATOM   1603  C3' U   B  11      -4.714 -20.833  46.773  0.00  0.00    +0.000 C 
ATOM   1604  C2' U   B  11      -4.274 -21.488  45.469  0.00  0.00    +0.000 C 
ATOM   1605  C1' U   B  11      -3.610 -20.306  44.756  0.00  0.00    +0.000 C 
BRANCH16051606
ATOM   1606  N1  U   B  11      -2.146 -20.265  44.980  0.00  0.00    +0.000 N 
ATOM   1607  C2  U   B  11      -1.362 -21.123  44.237  0.00  0.00    +0.000 A 
ATOM   1608  O2  U   B  11      -1.819 -21.903  43.419  0.00  0.00    +0.000 OA
ATOM   1609  N3  U   B  11      -0.006 -21.042  44.483  0.00  0.00    +0.000 N 
ATOM   1610  C4  U   B  11       0.626 -20.206  45.381  0.00  0.00    +0.000 A 
ATOM   1611  O4  U   B  11       1.848 -20.243  45.488  0.00  0.00    +0.000 OA
ATOM   1612  C5  U   B  11      -0.259 -19.350  46.115  0.00  0.00    +0.000 A 
ATOM   1613  C6  U   B  11      -1.579 -19.406  45.895  0.00  0.00    +0.000 A 
ATOM   1614  H   U   B  11       0.572 -21.645  43.962  0.00  0.00    +0.000 HD
ENDBRANCH16051606
BRANCH16041615
ATOM   1615  O2' U   B  11      -5.379 -21.930  44.705  0.00  0.00    +0.000 OA
ATOM   1616  H   U   B  11      -5.978 -21.185  44.541  0.00  0.00    +0.000 HD
ENDBRANCH16041615
BRANCH16011617
ATOM   1617  C5' U   B  11      -5.145 -18.375  47.359  0.00  0.00    +0.000 C 
BRANCH16171618
ATOM   1618  O5' U   B  11      -6.063 -17.339  47.031  0.00  0.00    +0.000 OA
BRANCH16181619
ATOM   1619  P   U   B  11      -5.659 -15.808  47.192  0.00  0.00    +0.000 P 
ATOM   1620  OP1 U   B  11      -6.859 -14.989  46.847  0.00  0.00    +0.000 OA
BRANCH16191621
ATOM   1621  OP2 U   B  11      -5.008 -15.632  48.510  0.00  0.00    +0.000 OA
ATOM   1622  H   U   B  11      -4.755 -14.703  48.624  0.00  0.00    +0.000 HD
ENDBRANCH16191621
BRANCH16191623
ATOM   1623  O3' U   B  10      -4.557 -15.561  46.039  0.00  0.00    +0.000 OA
BRANCH16231626
ATOM   1624  C4' U   B  10      -3.311 -13.871  44.863  0.00  0.00    +0.000 C 
ATOM   1625  O4' U   B  10      -2.247 -14.591  44.176  0.00  0.00    +0.000 OA
ATOM   1626  C3' U   B  10      -3.514 -14.578  46.207  0.00  0.00    +0.000 C 
ATOM   1627  C2' U   B  10      -2.180 -15.287  46.400  0.00  0.00    +0.000 C 
ATOM   1628  C1' U   B  10      -1.855 -15.696  44.961  0.00  0.00    +0.000 C 
BRANCH16281629
ATOM   1629  N1  U   B  10      -0.445 -16.013  44.694  0.00  0.00    +0.000 N 
ATOM   1630  C2  U   B  10      -0.190 -17.045  43.807  0.00  0.00    +0.000 A 
ATOM   1631  O2  U   B  10      -1.073 -17.672  43.244  0.00  0.00    +0.000 OA
ATOM   1632  N3  U   B  10       1.146 -17.321  43.594  0.00  0.00    +0.000 N 
ATOM   1633  C4  U   B  10       2.218 -16.691  44.172  0.00  0.00    +0.000 A 
ATOM   1634  O4  U   B  10       3.360 -17.055  43.876  0.00  0.00    +0.000 OA
ATOM   1635  C5  U   B  10       1.874 -15.636  45.084  0.00  0.00    +0.000 A 
ATOM   1636  C6  U   B  10       0.586 -15.340  45.304  0.00  0.00    +0.000 A 
ATOM   1637  H   U   B  10       1.350 -18.046  42.961  0.00  0.00    +0.000 HD
ENDBRANCH16281629
BRANCH16271638
ATOM   1638  O2' U   B  10      -2.220 -16.393  47.258  0.00  0.00    +0.000 OA
ATOM   1639  H   U   B  10      -2.859 -17.040  46.922  0.00  0.00    +0.000 HD
ENDBRANCH16271638
BRANCH16241640
ATOM   1640  C5' U   B  10      -2.952 -12.420  44.985  0.00  0.00    +0.000 C 
BRANCH16401641
ATOM   1641  O5' U   B  10      -3.066 -11.782  43.709  0.00  0.00    +0.000 OA
BRANCH16411642
ATOM   1642  P   U   B  10      -4.505 -11.656  42.961  0.00  0.00    +0.000 P 
ATOM   1643  OP1 U   B  10      -4.775 -12.968  42.281  0.00  0.00    +0.000 OA
BRANCH16421644
ATOM   1644  OP2 U   B  10      -5.464 -11.123  43.954  0.00  0.00    +0.000 OA
ATOM   1645  H   U   B  10      -6.338 -11.033  43.543  0.00  0.00    +0.000 HD
ENDBRANCH16421644
BRANCH16421646
ATOM   1646  O3' A   B   9      -4.220 -10.553  41.865  0.00  0.00    +0.000 OA
BRANCH16461649
ATOM   1647  C4' A   B   9      -4.999  -8.385  41.098  0.00  0.00    +0.000 C 
ATOM   1648  O4' A   B   9      -4.505  -7.036  41.255  0.00  0.00    +0.000 OA
ATOM   1649  C3' A   B   9      -4.281  -9.173  42.180  0.00  0.00    +0.000 C 
ATOM   1650  C2' A   B   9      -2.906  -8.518  42.213  0.00  0.00    +0.000 C 
ATOM   1651  C1' A   B   9      -3.245  -7.053  41.899  0.00  0.00    +0.000 C 
BRANCH16511652
ATOM   1652  N9  A   B   9      -3.320  -6.205  43.097  0.00  0.00    +0.000 N 
ATOM   1653  C8  A   B   9      -4.399  -5.966  43.902  0.00  0.00    +0.000 A 
ATOM   1654  N7  A   B   9      -4.144  -5.144  44.896  0.00  0.00    +0.000 NA
ATOM   1655  C5  A   B   9      -2.804  -4.822  44.726  0.00  0.00    +0.000 A 
ATOM   1656  C6  A   B   9      -1.933  -3.992  45.455  0.00  0.00    +0.000 A 
ATOM   1657  N6  A   B   9      -2.297  -3.307  46.549  0.00  0.00    +0.000 N 
ATOM   1658  N1  A   B   9      -0.662  -3.889  45.023  0.00  0.00    +0.000 NA
ATOM   1659  C2  A   B   9      -0.299  -4.574  43.927  0.00  0.00    +0.000 A 
ATOM   1660  N3  A   B   9      -1.027  -5.383  43.162  0.00  0.00    +0.000 NA
ATOM   1661  C4  A   B   9      -2.285  -5.466  43.621  0.00  0.00    +0.000 A 
ATOM   1662  H   A   B   9      -3.221  -3.367  46.883  0.00  0.00    +0.000 HD
ATOM   1663  H   A   B   9      -1.640  -2.744  47.018  0.00  0.00    +0.000 HD
ENDBRANCH16511652
BRANCH16501664
ATOM   1664  O2' A   B   9      -2.057  -9.022  41.199  0.00  0.00    +0.000 OA
ATOM   1665  H   A   B   9      -2.477  -8.897  40.334  0.00  0.00    +0.000 HD
ENDBRANCH16501664
BRANCH16471666
ATOM   1666  C5' A   B   9      -6.506  -8.382  41.186  0.00  0.00    +0.000 C 
BRANCH16661667
ATOM   1667  O5' A   B   9      -6.944  -7.830  42.425  0.00  0.00    +0.000 OA
BRANCH16671668
ATOM   1668  P   A   B   9      -8.173  -6.825  42.440  0.00  0.00    +0.000 P 
ATOM   1669  OP1 A   B   9      -7.777  -5.608  41.677  0.00  0.00    +0.000 OA
BRANCH16681670
ATOM   1670  OP2 A   B   9      -9.385  -7.585  42.053  0.00  0.00    +0.000 OA
ATOM   1671  H   A   B   9      -9.302  -7.880  41.133  0.00  0.00    +0.000 HD
ENDBRANCH16681670
BRANCH16681672
ATOM   1672  O3' U   B   8      -8.332  -6.344  43.974  0.00  0.00    +0.000 OA
BRANCH16721675
ATOM   1673  C4' U   B   8      -9.532  -7.139  45.932  0.00  0.00    +0.000 C 
ATOM   1674  O4' U   B   8      -9.108  -7.614  47.232  0.00  0.00    +0.000 OA
ATOM   1675  C3' U   B   8      -8.284  -7.236  45.074  0.00  0.00    +0.000 C 
ATOM   1676  C2' U   B   8      -7.171  -6.902  46.058  0.00  0.00    +0.000 C 
ATOM   1677  C1' U   B   8      -7.705  -7.518  47.350  0.00  0.00    +0.000 C 
BRANCH16771678
ATOM   1678  N1  U   B   8      -7.157  -8.864  47.620  0.00  0.00    +0.000 N 
ATOM   1679  C2  U   B   8      -5.984  -8.934  48.341  0.00  0.00    +0.000 A 
ATOM   1680  O2  U   B   8      -5.404  -7.946  48.749  0.00  0.00    +0.000 OA
ATOM   1681  N3  U   B   8      -5.515 -10.205  48.565  0.00  0.00    +0.000 N 
ATOM   1682  C4  U   B   8      -6.089 -11.392  48.156  0.00  0.00    +0.000 A 
ATOM   1683  O4  U   B   8      -5.547 -12.454  48.438  0.00  0.00    +0.000 OA
ATOM   1684  C5  U   B   8      -7.302 -11.231  47.419  0.00  0.00    +0.000 A 
ATOM   1685  C6  U   B   8      -7.782 -10.004  47.182  0.00  0.00    +0.000 A 
ATOM   1686  H   U   B   8      -4.676 -10.278  49.074  0.00  0.00    +0.000 HD
ENDBRANCH16771678
BRANCH16761687
ATOM   1687  O2' U   B   8      -7.034  -5.502  46.238  0.00  0.00    +0.000 OA
ATOM   1688  H   U   B   8      -7.881  -5.129  46.528  0.00  0.00    +0.000 HD
ENDBRANCH16761687
BRANCH16731689
ATOM   1689  C5' U   B   8     -10.719  -7.957  45.467  0.00  0.00    +0.000 C 
BRANCH16891690
ATOM   1690  O5' U   B   8     -10.421  -9.344  45.494  0.00  0.00    +0.000 OA
BRANCH16901691
ATOM   1691  P   U   B   8     -11.574 -10.442  45.618  0.00  0.00    +0.000 P 
ATOM   1692  OP1 U   B   8     -12.593 -10.176  44.571  0.00  0.00    +0.000 OA
BRANCH16911693
ATOM   1693  OP2 U   B   8     -10.927 -11.780  45.686  0.00  0.00    +0.000 OA
ATOM   1694  H   U   B   8     -10.528 -11.990  44.827  0.00  0.00    +0.000 HD
ENDBRANCH16911693
BRANCH16911695
ATOM   1695  O3' C   B   7     -12.217 -10.128  47.039  0.00  0.00    +0.000 OA
BRANCH16951698
ATOM   1696  C4' C   B   7     -12.586 -11.098  49.245  0.00  0.00    +0.000 C 
ATOM   1697  O4' C   B   7     -11.900 -10.987  50.521  0.00  0.00    +0.000 OA
ATOM   1698  C3' C   B   7     -11.591 -10.549  48.247  0.00  0.00    +0.000 C 
ATOM   1699  C2' C   B   7     -10.956  -9.406  49.028  0.00  0.00    +0.000 C 
ATOM   1700  C1' C   B   7     -10.892  -9.997  50.436  0.00  0.00    +0.000 C 
BRANCH17001701
ATOM   1701  N1  C   B   7      -9.585 -10.621  50.740  0.00  0.00    +0.000 N 
ATOM   1702  C2  C   B   7      -8.548  -9.805  51.205  0.00  0.00    +0.000 A 
ATOM   1703  O2  C   B   7      -8.756  -8.593  51.351  0.00  0.00    +0.000 OA
ATOM   1704  N3  C   B   7      -7.343 -10.364  51.489  0.00  0.00    +0.000 NA
ATOM   1705  C4  C   B   7      -7.153 -11.674  51.322  0.00  0.00    +0.000 A 
ATOM   1706  N4  C   B   7      -5.952 -12.177  51.617  0.00  0.00    +0.000 N 
ATOM   1707  C5  C   B   7      -8.191 -12.521  50.852  0.00  0.00    +0.000 A 
ATOM   1708  C6  C   B   7      -9.377 -11.960  50.579  0.00  0.00    +0.000 A 
ATOM   1709  H   C   B   7      -5.780 -13.140  51.504  0.00  0.00    +0.000 HD
ATOM   1710  H   C   B   7      -5.238 -11.585  51.947  0.00  0.00    +0.000 HD
ENDBRANCH17001701
BRANCH16991711
ATOM   1711  O2' C   B   7     -11.780  -8.259  49.046  0.00  0.00    +0.000 OA
ATOM   1712  H   C   B   7     -12.648  -8.490  49.412  0.00  0.00    +0.000 HD
ENDBRANCH16991711
BRANCH16961713
ATOM   1713  C5' C   B   7     -13.018 -12.528  49.024  0.00  0.00    +0.000 C 
BRANCH17131714
ATOM   1714  O5' C   B   7     -11.901 -13.407  49.034  0.00  0.00    +0.000 OA
BRANCH17141715
ATOM   1715  P   C   B   7     -12.089 -14.974  49.258  0.00  0.00    +0.000 P 
ATOM   1716  OP1 C   B   7     -13.088 -15.471  48.275  0.00  0.00    +0.000 OA
BRANCH17151717
ATOM   1717  OP2 C   B   7     -10.740 -15.593  49.311  0.00  0.00    +0.000 OA
ATOM   1718  H   C   B   7     -10.329 -15.548  48.434  0.00  0.00    +0.000 HD
ENDBRANCH17151717
BRANCH17151719
ATOM   1719  O3' A   B   6     -12.733 -15.069  50.723  0.00  0.00    +0.000 OA
BRANCH17191722
ATOM   1720  C4' A   B   6     -12.440 -15.869  53.011  0.00  0.00    +0.000 C 
ATOM   1721  O4' A   B   6     -11.828 -15.307  54.197  0.00  0.00    +0.000 OA
ATOM   1722  C3' A   B   6     -11.917 -14.998  51.885  0.00  0.00    +0.000 C 
ATOM   1723  C2' A   B   6     -11.898 -13.621  52.534  0.00  0.00    +0.000 C 
ATOM   1724  C1' A   B   6     -11.455 -13.964  53.955  0.00  0.00    +0.000 C 
BRANCH17241725
ATOM   1725  N9  A   B   6      -9.999 -13.846  54.131  0.00  0.00    +0.000 N 
ATOM   1726  C8  A   B   6      -9.052 -14.836  54.058  0.00  0.00    +0.000 A 
ATOM   1727  N7  A   B   6      -7.829 -14.415  54.263  0.00  0.00    +0.000 NA
ATOM   1728  C5  A   B   6      -7.981 -13.052  54.484  0.00  0.00    +0.000 A 
ATOM   1729  C6  A   B   6      -7.054 -12.029  54.764  0.00  0.00    +0.000 A 
ATOM   1730  N6  A   B   6      -5.733 -12.230  54.868  0.00  0.00    +0.000 N 
ATOM   1731  N1  A   B   6      -7.530 -10.778  54.931  0.00  0.00    +0.000 NA
ATOM   1732  C2  A   B   6      -8.852 -10.578  54.828  0.00  0.00    +0.000 A 
ATOM   1733  N3  A   B   6      -9.819 -11.456  54.571  0.00  0.00    +0.000 NA
ATOM   1734  C4  A   B   6      -9.307 -12.688  54.406  0.00  0.00    +0.000 A 
ATOM   1735  H   A   B   6      -5.362 -13.134  54.750  0.00  0.00    +0.000 HD
ATOM   1736  H   A   B   6      -5.134 -11.473  55.062  0.00  0.00    +0.000 HD
ENDBRANCH17241725
BRANCH17231737
ATOM   1737  O2' A   B   6     -13.189 -13.044  52.578  0.00  0.00    +0.000 OA
ATOM   1738  H   A   B   6     -13.795 -13.642  53.043  0.00  0.00    +0.000 HD
ENDBRANCH17231737
BRANCH17201739
ATOM   1739  C5' A   B   6     -12.113 -17.339  52.908  0.00  0.00    +0.000 C 
BRANCH17391740
ATOM   1740  O5' A   B   6     -10.720 -17.541  52.701  0.00  0.00    +0.000 OA
BRANCH17401741
ATOM   1741  P   A   B   6     -10.102 -19.010  52.709  0.00  0.00    +0.000 P 
ATOM   1742  OP1 A   B   6     -10.927 -19.873  51.827  0.00  0.00    +0.000 OA
BRANCH17411743
ATOM   1743  OP2 A   B   6      -8.639 -18.890  52.466  0.00  0.00    +0.000 OA
ATOM   1744  H   A   B   6      -8.486 -18.592  51.556  0.00  0.00    +0.000 HD
ENDBRANCH17411743
BRANCH17411745
ATOM   1745  O3' U   B   5     -10.316 -19.499  54.206  0.00  0.00    +0.000 OA
BRANCH17451748
ATOM   1746  C4' U   B   5      -9.258 -19.990  56.350  0.00  0.00    +0.000 C 
ATOM   1747  O4' U   B   5      -8.865 -19.177  57.487  0.00  0.00    +0.000 OA
ATOM   1748  C3' U   B   5      -9.498 -18.981  55.250  0.00  0.00    +0.000 C 
ATOM   1749  C2' U   B   5     -10.142 -17.828  56.011  0.00  0.00    +0.000 C 
ATOM   1750  C1' U   B   5      -9.345 -17.856  57.319  0.00  0.00    +0.000 C 
BRANCH17501751
ATOM   1751  N1  U   B   5      -8.195 -16.925  57.294  0.00  0.00    +0.000 N 
ATOM   1752  C2  U   B   5      -8.445 -15.596  57.595  0.00  0.00    +0.000 A 
ATOM   1753  O2  U   B   5      -9.559 -15.177  57.876  0.00  0.00    +0.000 OA
ATOM   1754  N3  U   B   5      -7.341 -14.774  57.555  0.00  0.00    +0.000 N 
ATOM   1755  C4  U   B   5      -6.041 -15.134  57.252  0.00  0.00    +0.000 A 
ATOM   1756  O4  U   B   5      -5.158 -14.280  57.256  0.00  0.00    +0.000 OA
ATOM   1757  C5  U   B   5      -5.870 -16.523  56.955  0.00  0.00    +0.000 A 
ATOM   1758  C6  U   B   5      -6.926 -17.351  56.986  0.00  0.00    +0.000 A 
ATOM   1759  H   U   B   5      -7.494 -13.825  57.766  0.00  0.00    +0.000 HD
ENDBRANCH17501751
BRANCH17491760
ATOM   1760  O2' U   B   5     -11.502 -18.081  56.295  0.00  0.00    +0.000 OA
ATOM   1761  H   U   B   5     -11.580 -18.914  56.786  0.00  0.00    +0.000 HD
ENDBRANCH17491760
BRANCH17461762
ATOM   1762  C5' U   B   5      -8.202 -21.034  56.065  0.00  0.00    +0.000 C 
BRANCH17621763
ATOM   1763  O5' U   B   5      -6.967 -20.436  55.691  0.00  0.00    +0.000 OA
BRANCH17631764
ATOM   1764  P   U   B   5      -5.650 -21.320  55.501  0.00  0.00    +0.000 P 
ATOM   1765  OP1 U   B   5      -5.975 -22.467  54.617  0.00  0.00    +0.000 OA
BRANCH17641766
ATOM   1766  OP2 U   B   5      -4.529 -20.404  55.143  0.00  0.00    +0.000 OA
ATOM   1767  H   U   B   5      -4.681 -20.037  54.258  0.00  0.00    +0.000 HD
ENDBRANCH17641766
BRANCH17641768
ATOM   1768  O3' A   B   4      -5.363 -21.903  56.961  0.00  0.00    +0.000 OA
BRANCH17681771
ATOM   1769  C4' A   B   4      -3.999 -21.863  58.983  0.00  0.00    +0.000 C 
ATOM   1770  O4' A   B   4      -3.950 -20.985  60.136  0.00  0.00    +0.000 OA
ATOM   1771  C3' A   B   4      -4.796 -21.071  57.965  0.00  0.00    +0.000 C 
ATOM   1772  C2' A   B   4      -5.837 -20.384  58.837  0.00  0.00    +0.000 C 
ATOM   1773  C1' A   B   4      -5.007 -20.042  60.072  0.00  0.00    +0.000 C 
BRANCH17731774
ATOM   1774  N9  A   B   4      -4.428 -18.692  59.993  0.00  0.00    +0.000 N 
ATOM   1775  C8  A   B   4      -3.155 -18.337  59.623  0.00  0.00    +0.000 A 
ATOM   1776  N7  A   B   4      -2.940 -17.044  59.652  0.00  0.00    +0.000 NA
ATOM   1777  C5  A   B   4      -4.154 -16.514  60.067  0.00  0.00    +0.000 A 
ATOM   1778  C6  A   B   4      -4.583 -15.195  60.299  0.00  0.00    +0.000 A 
ATOM   1779  N6  A   B   4      -3.798 -14.120  60.130  0.00  0.00    +0.000 N 
ATOM   1780  N1  A   B   4      -5.853 -15.008  60.708  0.00  0.00    +0.000 NA
ATOM   1781  C2  A   B   4      -6.637 -16.083  60.873  0.00  0.00    +0.000 A 
ATOM   1782  N3  A   B   4      -6.351 -17.368  60.689  0.00  0.00    +0.000 NA
ATOM   1783  C4  A   B   4      -5.076 -17.514  60.279  0.00  0.00    +0.000 A 
ATOM   1784  H   A   B   4      -2.867 -14.233  59.832  0.00  0.00    +0.000 HD
ATOM   1785  H   A   B   4      -4.153 -13.219  60.304  0.00  0.00    +0.000 HD
ENDBRANCH17731774
BRANCH17721786
ATOM   1786  O2' A   B   4      -6.877 -21.271  59.209  0.00  0.00    +0.000 OA
ATOM   1787  H   A   B   4      -6.498 -22.045  59.654  0.00  0.00    +0.000 HD
ENDBRANCH17721786
BRANCH17691788
ATOM   1788  C5' A   B   4      -2.597 -22.248  58.572  0.00  0.00    +0.000 C 
BRANCH17881789
ATOM   1789  O5' A   B   4      -1.825 -21.097  58.230  0.00  0.00    +0.000 OA
BRANCH17891790
ATOM   1790  P   A   B   4      -0.246 -21.211  58.021  0.00  0.00    +0.000 P 
ATOM   1791  OP1 A   B   4       0.028 -22.348  57.106  0.00  0.00    +0.000 OA
BRANCH17901792
ATOM   1792  OP2 A   B   4       0.266 -19.854  57.685  0.00  0.00    +0.000 OA
ATOM   1793  H   A   B   4      -0.064 -19.591  56.812  0.00  0.00    +0.000 HD
ENDBRANCH17901792
BRANCH17901794
ATOM   1794  O3' A   B   3       0.312 -21.616  59.459  0.00  0.00    +0.000 OA
BRANCH17941797
ATOM   1795  C4' A   B   3       1.533 -20.970  61.472  0.00  0.00    +0.000 C 
ATOM   1796  O4' A   B   3       1.181 -20.194  62.645  0.00  0.00    +0.000 OA
ATOM   1797  C3' A   B   3       0.444 -20.628  60.474  0.00  0.00    +0.000 C 
ATOM   1798  C2' A   B   3      -0.787 -20.509  61.363  0.00  0.00    +0.000 C 
ATOM   1799  C1' A   B   3      -0.191 -19.839  62.598  0.00  0.00    +0.000 C 
BRANCH17991800
ATOM   1800  N9  A   B   3      -0.294 -18.372  62.537  0.00  0.00    +0.000 N 
ATOM   1801  C8  A   B   3       0.669 -17.472  62.157  0.00  0.00    +0.000 A 
ATOM   1802  N7  A   B   3       0.272 -16.224  62.208  0.00  0.00    +0.000 NA
ATOM   1803  C5  A   B   3      -1.041 -16.310  62.652  0.00  0.00    +0.000 A 
ATOM   1804  C6  A   B   3      -2.018 -15.332  62.918  0.00  0.00    +0.000 A 
ATOM   1805  N6  A   B   3      -1.811 -14.016  62.758  0.00  0.00    +0.000 N 
ATOM   1806  N1  A   B   3      -3.224 -15.750  63.348  0.00  0.00    +0.000 NA
ATOM   1807  C2  A   B   3      -3.428 -17.065  63.502  0.00  0.00    +0.000 A 
ATOM   1808  N3  A   B   3      -2.592 -18.076  63.289  0.00  0.00    +0.000 NA
ATOM   1809  C4  A   B   3      -1.400 -17.623  62.857  0.00  0.00    +0.000 A 
ATOM   1810  H   A   B   3      -0.937 -13.690  62.445  0.00  0.00    +0.000 HD
ATOM   1811  H   A   B   3      -2.534 -13.377  62.954  0.00  0.00    +0.000 HD
ENDBRANCH17991800
BRANCH17981812
ATOM   1812  O2' A   B   3      -1.294 -21.783  61.727  0.00  0.00    +0.000 OA
ATOM   1813  H   A   B   3      -0.594 -22.299  62.156  0.00  0.00    +0.000 HD
ENDBRANCH17981812
BRANCH17951814
ATOM   1814  C5' A   B   3       2.949 -20.641  61.049  0.00  0.00    +0.000 C 
BRANCH18141815
ATOM   1815  O5' A   B   3       3.085 -19.256  60.731  0.00  0.00    +0.000 OA
BRANCH18151816
ATOM   1816  P   A   B   3       4.528 -18.595  60.562  0.00  0.00    +0.000 P 
ATOM   1817  OP1 A   B   3       5.349 -19.465  59.680  0.00  0.00    +0.000 OA
BRANCH18161818
ATOM   1818  OP2 A   B   3       4.335 -17.164  60.211  0.00  0.00    +0.000 OA
ATOM   1819  H   A   B   3       3.954 -17.098  59.321  0.00  0.00    +0.000 HD
ENDBRANCH18161818
BRANCH18161820
ATOM   1820  O3' U   B   2       5.154 -18.674  62.027  0.00  0.00    +0.000 OA
BRANCH18201823
ATOM   1821  C4' U   B   2       5.809 -17.347  63.969  0.00  0.00    +0.000 C 
ATOM   1822  O4' U   B   2       5.119 -16.921  65.175  0.00  0.00    +0.000 OA
ATOM   1823  C3' U   B   2       4.691 -17.788  63.050  0.00  0.00    +0.000 C 
ATOM   1824  C2' U   B   2       3.709 -18.442  64.019  0.00  0.00    +0.000 C 
ATOM   1825  C1' U   B   2       3.839 -17.525  65.236  0.00  0.00    +0.000 C 
BRANCH18251826
ATOM   1826  N1  U   B   2       2.804 -16.465  65.260  0.00  0.00    +0.000 N 
ATOM   1827  C2  U   B   2       1.539 -16.812  65.709  0.00  0.00    +0.000 A 
ATOM   1828  O2  U   B   2       1.250 -17.944  66.073  0.00  0.00    +0.000 OA
ATOM   1829  N3  U   B   2       0.619 -15.787  65.717  0.00  0.00    +0.000 N 
ATOM   1830  C4  U   B   2       0.832 -14.477  65.328  0.00  0.00    +0.000 A 
ATOM   1831  O4  U   B   2      -0.093 -13.672  65.392  0.00  0.00    +0.000 OA
ATOM   1832  C5  U   B   2       2.163 -14.201  64.880  0.00  0.00    +0.000 A 
ATOM   1833  C6  U   B   2       3.081 -15.177  64.863  0.00  0.00    +0.000 A 
ATOM   1834  H   U   B   2      -0.286 -16.011  66.033  0.00  0.00    +0.000 HD
ENDBRANCH18251826
BRANCH18241835
ATOM   1835  O2' U   B   2       4.120 -19.752  64.377  0.00  0.00    +0.000 OA
ATOM   1836  H   U   B   2       5.015 -19.720  64.749  0.00  0.00    +0.000 HD
ENDBRANCH18241835
BRANCH18211837
ATOM   1837  C5' U   B   2       6.684 -16.226  63.449  0.00  0.00    +0.000 C 
BRANCH18371838
ATOM   1838  O5' U   B   2       5.902 -15.114  63.023  0.00  0.00    +0.000 OA
BRANCH18381839
ATOM   1839  P   U   B   2       6.589 -13.798  62.432  0.00  0.00    +0.000 P 
ATOM   1840  OP1 U   B   2       7.608 -14.203  61.430  0.00  0.00    +0.000 OA
BRANCH18391841
ATOM   1841  OP2 U   B   2       5.510 -12.850  62.045  0.00  0.00    +0.000 OA
ATOM   1842  H   U   B   2       5.023 -13.207  61.286  0.00  0.00    +0.000 HD
ENDBRANCH18391841
BRANCH18391843
ATOM   1843  O3' C   B   1       7.400 -13.184  63.712  0.00  0.00    +0.000 OA
BRANCH18431846
ATOM   1844  C4' C   B   1       7.458 -11.414  65.382  0.00  0.00    +0.000 C 
ATOM   1845  O4' C   B   1       6.859 -11.248  66.696  0.00  0.00    +0.000 OA
ATOM   1846  C3' C   B   1       6.673 -12.550  64.763  0.00  0.00    +0.000 C 
ATOM   1847  C2' C   B   1       6.417 -13.452  65.953  0.00  0.00    +0.000 C 
ATOM   1848  C1' C   B   1       6.187 -12.434  67.069  0.00  0.00    +0.000 C 
BRANCH18481849
ATOM   1849  N1  C   B   1       4.759 -12.134  67.302  0.00  0.00    +0.000 N 
ATOM   1850  C2  C   B   1       3.978 -13.062  67.986  0.00  0.00    +0.000 A 
ATOM   1851  O2  C   B   1       4.498 -14.124  68.383  0.00  0.00    +0.000 OA
ATOM   1852  N3  C   B   1       2.669 -12.795  68.213  0.00  0.00    +0.000 NA
ATOM   1853  C4  C   B   1       2.138 -11.652  67.776  0.00  0.00    +0.000 A 
ATOM   1854  N4  C   B   1       0.851 -11.427  68.030  0.00  0.00    +0.000 N 
ATOM   1855  C5  C   B   1       2.912 -10.686  67.075  0.00  0.00    +0.000 A 
ATOM   1856  C6  C   B   1       4.204 -10.966  66.862  0.00  0.00    +0.000 A 
ATOM   1857  H   C   B   1       0.427 -10.594  67.722  0.00  0.00    +0.000 HD
ATOM   1858  H   C   B   1       0.323 -12.094  68.526  0.00  0.00    +0.000 HD
ENDBRANCH18481849
BRANCH18471859
ATOM   1859  O2' C   B   1       7.557 -14.228  66.253  0.00  0.00    +0.000 OA
ATOM   1860  H   C   B   1       8.316 -13.643  66.401  0.00  0.00    +0.000 HD
ENDBRANCH18471859
BRANCH18441861
ATOM   1861  C5' C   B   1       7.418 -10.109  64.632  0.00  0.00    +0.000 C 
BRANCH18611862
ATOM   1862  O5' C   B   1       6.080  -9.718  64.360  0.00  0.00    +0.000 OA
BRANCH18621864
ATOM   1863  OP3 C   B   1       5.075  -7.517  63.833  0.00  0.00    +0.000 OA
ATOM   1864  P   C   B   1       5.737  -8.395  63.524  0.00  0.00    +0.000 P 
ATOM   1865  OP1 C   B   1       6.567  -8.392  62.327  0.00  0.00    +0.000 OA
ATOM   1866  OP2 C   B   1       4.266  -8.429  63.287  0.00  0.00    +0.000 OA
ENDBRANCH18621864
ENDBRANCH18611862
ENDBRANCH18441861
ENDBRANCH18431846
ENDBRANCH18391843
ENDBRANCH18381839
ENDBRANCH18371838
ENDBRANCH18211837
ENDBRANCH18201823
ENDBRANCH18161820
ENDBRANCH18151816
ENDBRANCH18141815
ENDBRANCH17951814
ENDBRANCH17941797
ENDBRANCH17901794
ENDBRANCH17891790
ENDBRANCH17881789
ENDBRANCH17691788
ENDBRANCH17681771
ENDBRANCH17641768
ENDBRANCH17631764
ENDBRANCH17621763
ENDBRANCH17461762
ENDBRANCH17451748
ENDBRANCH17411745
ENDBRANCH17401741
ENDBRANCH17391740
ENDBRANCH17201739
ENDBRANCH17191722
ENDBRANCH17151719
ENDBRANCH17141715
ENDBRANCH17131714
ENDBRANCH16961713
ENDBRANCH16951698
ENDBRANCH16911695
ENDBRANCH16901691
ENDBRANCH16891690
ENDBRANCH16731689
ENDBRANCH16721675
ENDBRANCH16681672
ENDBRANCH16671668
ENDBRANCH16661667
ENDBRANCH16471666
ENDBRANCH16461649
ENDBRANCH16421646
ENDBRANCH16411642
ENDBRANCH16401641
ENDBRANCH16241640
ENDBRANCH16231626
ENDBRANCH16191623
ENDBRANCH16181619
ENDBRANCH16171618
ENDBRANCH16011617
ENDBRANCH16001603
ENDBRANCH15961600
ENDBRANCH15951596
ENDBRANCH15941595
ENDBRANCH15781594
ENDBRANCH15771580
ENDBRANCH15731577
ENDBRANCH15721573
ENDBRANCH15711572
ENDBRANCH15541571
ENDBRANCH15531556
ENDBRANCH15491553
ENDBRANCH15481549
ENDBRANCH15471548
ENDBRANCH15281547
ENDBRANCH15271530
ENDBRANCH15231527
ENDBRANCH15221523
ENDBRANCH15211522
ENDBRANCH15051521
ENDBRANCH15041507
ENDBRANCH15001504
ENDBRANCH14991500
ENDBRANCH14981499
ENDBRANCH14811498
ENDBRANCH14801483
ENDBRANCH14761480
ENDBRANCH14751476
ENDBRANCH14741475
ENDBRANCH14571474
ENDBRANCH14561459
ENDBRANCH14521456
ENDBRANCH14511452
ENDBRANCH14501451
ENDBRANCH14291450
ENDBRANCH14281431
ENDBRANCH14241428
ENDBRANCH14231424
ENDBRANCH14221423
ENDBRANCH14031422
ENDBRANCH14021405
ENDBRANCH13981402
ENDBRANCH13971398
ENDBRANCH13961397
ENDBRANCH13771396
ENDBRANCH13761379
ENDBRANCH13721376
ENDBRANCH13711372
ENDBRANCH13701371
ENDBRANCH13511370
ENDBRANCH13501353
ENDBRANCH13461350
ENDBRANCH13451346
ENDBRANCH13441345
ENDBRANCH13271344
ENDBRANCH13261329
ENDBRANCH13221326
ENDBRANCH13211322
ENDBRANCH13201321
ENDBRANCH13041320
ENDBRANCH13031306
ENDBRANCH12991303
ENDBRANCH12981299
ENDBRANCH12971298
ENDBRANCH12811297
ENDBRANCH12801283
ENDBRANCH12761280
ENDBRANCH12751276
ENDBRANCH12741275
ENDBRANCH12581274
ENDBRANCH12571260
ENDBRANCH12531257
ENDBRANCH12521253
ENDBRANCH12511252
ENDBRANCH12351251
ENDBRANCH12341237
ENDBRANCH12301234
ENDBRANCH12291230
ENDBRANCH12281229
ENDBRANCH12121228
ENDBRANCH12111214
ENDBRANCH12071211
ENDBRANCH12061207
ENDBRANCH12051206
ENDBRANCH11891205
ENDBRANCH11881191
ENDBRANCH11841188
ENDBRANCH11831184
ENDBRANCH11821183
ENDBRANCH11631182
ENDBRANCH11621165
ENDBRANCH11581162
ENDBRANCH11571158
ENDBRANCH11561157
ENDBRANCH11371156
ENDBRANCH11361139
ENDBRANCH11321136
ENDBRANCH11311132
ENDBRANCH11301131
ENDBRANCH11111130
ENDBRANCH11101113
ENDBRANCH11061110
ENDBRANCH11051106
ENDBRANCH11041105
ENDBRANCH10851104
ENDBRANCH10841087
ENDBRANCH10801084
ENDBRANCH10791080
ENDBRANCH10781079
ENDBRANCH10621078
ENDBRANCH10611064
ENDBRANCH10571061
ENDBRANCH10561057
ENDBRANCH10551056
ENDBRANCH10361055
ENDBRANCH10351038
ENDBRANCH10311035
ENDBRANCH10301031
ENDBRANCH10291030
ENDBRANCH10101029
ENDBRANCH10091012
ENDBRANCH10051009
ENDBRANCH10041005
ENDBRANCH10031004
ENDBRANCH 9871003
ENDBRANCH 986 989
ENDBRANCH 982 986
ENDBRANCH 981 982
ENDBRANCH 980 981
ENDBRANCH 961 980
ENDBRANCH 960 963
ENDBRANCH 956 960
ENDBRANCH 955 956
ENDBRANCH 954 955
ENDBRANCH 938 954
ENDBRANCH 937 940
ENDBRANCH   1 937
TORSDOF 620
