REMARK  Name = /storage/kiran-stuff/aaRS/phase2/energy_scoring/vina_182jobs/anc_prors_edit_GLU_GLU/ligand.h.pdb
REMARK  7 active torsions:
REMARK  status: ('A' for Active; 'I' for Inactive)
REMARK    1  A    between atoms: N_1  and  CA_2
REMARK    2  A    between atoms: CA_2  and  C_3
REMARK    3  A    between atoms: CA_2  and  CB_5
REMARK    4  A    between atoms: C_3  and  OXT_10
REMARK    5  A    between atoms: CB_5  and  CG_6
REMARK    6  A    between atoms: CG_6  and  CD_7
REMARK    7  A    between atoms: CD_7  and  OE2_9
REMARK                            x       y       z     vdW  Elec       q    Type
REMARK                         _______ _______ _______ _____ _____    ______ ____
ROOT
ATOM      1  CA  GLU B   1      20.127   0.468  -8.122  0.00  0.00    +0.000 C 
ENDROOT
BRANCH   1   2
ATOM      2  N   GLU B   1      18.921  -0.352  -8.195  0.00  0.00    +0.000 NA
ATOM      3  H   GLU B   1      18.790  -0.679  -9.152  0.00  0.00    +0.000 HD
ATOM      4  H   GLU B   1      18.114   0.204  -7.912  0.00  0.00    +0.000 HD
ENDBRANCH   1   2
BRANCH   1   5
ATOM      5  C   GLU B   1      21.334  -0.296  -8.643  0.00  0.00    +0.000 C 
ATOM      6  O   GLU B   1      21.260  -1.490  -8.895  0.00  0.00    +0.000 OA
BRANCH   5   7
ATOM      7  OXT GLU B   1      22.402   0.313  -8.824  0.00  0.00    +0.000 OA
ATOM      8  H   GLU B   1      22.458   1.228  -8.631  0.00  0.00    +0.000 HD
ENDBRANCH   5   7
ENDBRANCH   1   5
BRANCH   1   9
ATOM      9  CB  GLU B   1      20.352   0.969  -6.719  0.00  0.00    +0.000 C 
BRANCH   9  10
ATOM     10  CG  GLU B   1      19.278   1.903  -6.274  0.00  0.00    +0.000 C 
BRANCH  10  11
ATOM     11  CD  GLU B   1      19.566   2.548  -4.935  0.00  0.00    +0.000 C 
ATOM     12  OE1 GLU B   1      20.714   2.470  -4.461  0.00  0.00    +0.000 OA
BRANCH  11  13
ATOM     13  OE2 GLU B   1      18.639   3.146  -4.385  0.00  0.00    +0.000 OA
ATOM     14  H   GLU B   1      17.794   3.172  -4.788  0.00  0.00    +0.000 HD
ENDBRANCH  11  13
ENDBRANCH  10  11
ENDBRANCH   9  10
ENDBRANCH   1   9
TORSDOF 7
