REMARK  Name = /storage/kiran-stuff/aaRS/phase2/energy_scoring/vina_182jobs/anc_prors_edit_GLU_GLU/ligand.h.pdb
REMARK  7 active torsions:
REMARK  status: ('A' for Active; 'I' for Inactive)
REMARK    1  A    between atoms: N_1  and  CA_2
REMARK    2  A    between atoms: CA_2  and  C_3
REMARK    3  A    between atoms: CA_2  and  CB_5
REMARK    4  A    between atoms: C_3  and  OXT_10
REMARK    5  A    between atoms: CB_5  and  CG_6
REMARK    6  A    between atoms: CG_6  and  CD_7
REMARK    7  A    between atoms: CD_7  and  OE2_9
REMARK                            x       y       z     vdW  Elec       q    Type
REMARK                         _______ _______ _______ _____ _____    ______ ____
ROOT
ATOM      1  CA  GLU B   1      24.153  -8.645   4.912  0.00  0.00    +0.000 C 
ENDROOT
BRANCH   1   2
ATOM      2  N   GLU B   1      24.351 -10.051   4.571  0.00  0.00    +0.000 NA
ATOM      3  H   GLU B   1      23.754 -10.631   5.160  0.00  0.00    +0.000 HD
ATOM      4  H   GLU B   1      25.328 -10.303   4.723  0.00  0.00    +0.000 HD
ENDBRANCH   1   2
BRANCH   1   5
ATOM      5  C   GLU B   1      22.685  -8.263   4.803  0.00  0.00    +0.000 C 
ATOM      6  O   GLU B   1      21.863  -8.698   5.597  0.00  0.00    +0.000 OA
BRANCH   5   7
ATOM      7  OXT GLU B   1      22.329  -7.488   3.900  0.00  0.00    +0.000 OA
ATOM      8  H   GLU B   1      22.959  -7.155   3.292  0.00  0.00    +0.000 HD
ENDBRANCH   5   7
ENDBRANCH   1   5
BRANCH   1   9
ATOM      9  CB  GLU B   1      25.021  -7.758   4.059  0.00  0.00    +0.000 C 
BRANCH   9  10
ATOM     10  CG  GLU B   1      26.426  -7.697   4.554  0.00  0.00    +0.000 C 
BRANCH  10  11
ATOM     11  CD  GLU B   1      27.176  -6.474   4.072  0.00  0.00    +0.000 C 
ATOM     12  OE1 GLU B   1      26.785  -5.890   3.045  0.00  0.00    +0.000 OA
BRANCH  11  13
ATOM     13  OE2 GLU B   1      28.139  -6.099   4.746  0.00  0.00    +0.000 OA
ATOM     14  H   GLU B   1      28.389  -6.578   5.510  0.00  0.00    +0.000 HD
ENDBRANCH  11  13
ENDBRANCH  10  11
ENDBRANCH   9  10
ENDBRANCH   1   9
TORSDOF 7
