REMARK  Name = /storage/kiran-stuff/aaRS/phase2/energy_scoring/vina_182jobs/proRS_editing_Pro_PRO/ligand.h.pdb
REMARK  2 active torsions:
REMARK  status: ('A' for Active; 'I' for Inactive)
REMARK    1  A    between atoms: CA_2  and  C_3
REMARK    2  A    between atoms: C_3  and  OXT_8
REMARK                            x       y       z     vdW  Elec       q    Type
REMARK                         _______ _______ _______ _____ _____    ______ ____
ROOT
ATOM      1  N   PRO L   1     -29.399  32.638 -29.624  0.00  0.00    +0.000 NA
ATOM      2  CA  PRO L   1     -30.795  32.548 -30.089  0.00  0.00    +0.000 C 
ATOM      3  CB  PRO L   1     -31.613  32.523 -28.844  0.00  0.00    +0.000 C 
ATOM      4  CG  PRO L   1     -30.716  32.265 -27.765  0.00  0.00    +0.000 C 
ATOM      5  CD  PRO L   1     -29.336  32.313 -28.288  0.00  0.00    +0.000 C 
ATOM      6  H   PRO L   1     -29.057  33.589 -29.758  0.00  0.00    +0.000 HD
ENDROOT
BRANCH   2   7
ATOM      7  C   PRO L   1     -31.137  33.670 -31.027  0.00  0.00    +0.000 C 
ATOM      8  O   PRO L   1     -30.916  33.543 -32.219  0.00  0.00    +0.000 OA
BRANCH   7   9
ATOM      9  OXT PRO L   1     -31.587  34.734 -30.589  0.00  0.00    +0.000 OA
ATOM     10  H   PRO L   1     -31.756  34.829 -29.672  0.00  0.00    +0.000 HD
ENDBRANCH   7   9
ENDBRANCH   2   7
TORSDOF 2
