REMARK  Name = /storage/kiran-stuff/aaRS/phase2/energy_scoring/vina_182jobs/proRS_editing_Pro_PRO/ligand.h.pdb
REMARK  2 active torsions:
REMARK  status: ('A' for Active; 'I' for Inactive)
REMARK    1  A    between atoms: CA_2  and  C_3
REMARK    2  A    between atoms: C_3  and  OXT_8
REMARK                            x       y       z     vdW  Elec       q    Type
REMARK                         _______ _______ _______ _____ _____    ______ ____
ROOT
ATOM      1  N   PRO L   1     -29.458  32.433 -29.461  0.00  0.00    +0.000 NA
ATOM      2  CA  PRO L   1     -30.918  32.471 -29.264  0.00  0.00    +0.000 C 
ATOM      3  CB  PRO L   1     -31.102  32.830 -27.829  0.00  0.00    +0.000 C 
ATOM      4  CG  PRO L   1     -29.835  32.660 -27.195  0.00  0.00    +0.000 C 
ATOM      5  CD  PRO L   1     -28.828  32.382 -28.238  0.00  0.00    +0.000 C 
ATOM      6  H   PRO L   1     -29.161  33.271 -29.961  0.00  0.00    +0.000 HD
ENDROOT
BRANCH   2   7
ATOM      7  C   PRO L   1     -31.580  33.417 -30.224  0.00  0.00    +0.000 C 
ATOM      8  O   PRO L   1     -32.029  32.990 -31.274  0.00  0.00    +0.000 OA
BRANCH   7   9
ATOM      9  OXT PRO L   1     -31.622  34.628 -29.979  0.00  0.00    +0.000 OA
ATOM     10  H   PRO L   1     -31.276  34.954 -29.171  0.00  0.00    +0.000 HD
ENDBRANCH   7   9
ENDBRANCH   2   7
TORSDOF 2
