REMARK  Name = /storage/kiran-stuff/aaRS/phase2/energy_scoring/vina_182jobs/proRS_editing_Pro_PRO/ligand.h.pdb
REMARK  360 active torsions:
REMARK  status: ('A' for Active; 'I' for Inactive)
REMARK    1  A    between atoms: OP3_1  and  P_2
REMARK    2  A    between atoms: OP3_1  and  OP2_4
REMARK    3  A    between atoms: O5'_5  and  C5'_6
REMARK    4  A    between atoms: C5'_6  and  C4'_7
REMARK    5  A    between atoms: C3'_9  and  O3'_10
REMARK    6  A    between atoms: O3'_10  and  P_22
REMARK    7  A    between atoms: C2'_11  and  O2'_12
REMARK    8  A    between atoms: C1'_13  and  N1_14
REMARK    9  A    between atoms: P_22  and  OP2_24
REMARK   10  A    between atoms: P_22  and  O5'_25
REMARK   11  A    between atoms: O5'_25  and  C5'_26
REMARK   12  A    between atoms: C5'_26  and  C4'_27
REMARK   13  A    between atoms: C3'_29  and  O3'_30
REMARK   14  A    between atoms: O3'_30  and  P_42
REMARK   15  A    between atoms: C2'_31  and  O2'_32
REMARK   16  A    between atoms: C1'_33  and  N1_34
REMARK   17  A    between atoms: P_42  and  OP2_44
REMARK   18  A    between atoms: P_42  and  O5'_45
REMARK   19  A    between atoms: O5'_45  and  C5'_46
REMARK   20  A    between atoms: C5'_46  and  C4'_47
REMARK   21  A    between atoms: C3'_49  and  O3'_50
REMARK   22  A    between atoms: O3'_50  and  P_64
REMARK   23  A    between atoms: C2'_51  and  O2'_52
REMARK   24  A    between atoms: C1'_53  and  N9_54
REMARK   25  A    between atoms: C6_58  and  N6_59
REMARK   26  A    between atoms: P_64  and  OP2_66
REMARK   27  A    between atoms: P_64  and  O5'_67
REMARK   28  A    between atoms: O5'_67  and  C5'_68
REMARK   29  A    between atoms: C5'_68  and  C4'_69
REMARK   30  A    between atoms: C3'_71  and  O3'_72
REMARK   31  A    between atoms: O3'_72  and  P_86
REMARK   32  A    between atoms: C2'_73  and  O2'_74
REMARK   33  A    between atoms: C1'_75  and  N9_76
REMARK   34  A    between atoms: C6_80  and  N6_81
REMARK   35  A    between atoms: P_86  and  OP2_88
REMARK   36  A    between atoms: P_86  and  O5'_89
REMARK   37  A    between atoms: O5'_89  and  C5'_90
REMARK   38  A    between atoms: C5'_90  and  C4'_91
REMARK   39  A    between atoms: C3'_93  and  O3'_94
REMARK   40  A    between atoms: O3'_94  and  P_106
REMARK   41  A    between atoms: C2'_95  and  O2'_96
REMARK   42  A    between atoms: C1'_97  and  N1_98
REMARK   43  A    between atoms: P_106  and  OP2_108
REMARK   44  A    between atoms: P_106  and  O5'_109
REMARK   45  A    between atoms: O5'_109  and  C5'_110
REMARK   46  A    between atoms: C5'_110  and  C4'_111
REMARK   47  A    between atoms: C3'_113  and  O3'_114
REMARK   48  A    between atoms: O3'_114  and  P_128
REMARK   49  A    between atoms: C2'_115  and  O2'_116
REMARK   50  A    between atoms: C1'_117  and  N9_118
REMARK   51  A    between atoms: P_128  and  OP2_130
REMARK   52  A    between atoms: P_128  and  O5'_131
REMARK   53  A    between atoms: O5'_131  and  C5'_132
REMARK   54  A    between atoms: C5'_132  and  C4'_133
REMARK   55  A    between atoms: C3'_135  and  O3'_136
REMARK   56  A    between atoms: O3'_136  and  P_148
REMARK   57  A    between atoms: C2'_137  and  O2'_138
REMARK   58  A    between atoms: C1'_139  and  N1_140
REMARK   59  A    between atoms: P_148  and  OP2_150
REMARK   60  A    between atoms: P_148  and  O5'_151
REMARK   61  A    between atoms: O5'_151  and  C5'_152
REMARK   62  A    between atoms: C5'_152  and  C4'_153
REMARK   63  A    between atoms: C3'_155  and  O3'_156
REMARK   64  A    between atoms: O3'_156  and  P_168
REMARK   65  A    between atoms: C2'_157  and  O2'_158
REMARK   66  A    between atoms: C1'_159  and  N1_160
REMARK   67  A    between atoms: P_168  and  OP1_169
REMARK   68  A    between atoms: P_168  and  O5'_171
REMARK   69  A    between atoms: O5'_171  and  C5'_172
REMARK   70  A    between atoms: C5'_172  and  C4'_173
REMARK   71  A    between atoms: C2'_177  and  O2'_178
REMARK   72  A    between atoms: C6_184  and  N6_185
REMARK   73  A    between atoms: P_190  and  OP2_192
REMARK   74  A    between atoms: C2'_199  and  O2'_200
REMARK   75  A    between atoms: C1'_201  and  N1_202
REMARK   76  A    between atoms: P_210  and  OP1_211
REMARK   77  A    between atoms: C2'_219  and  O2'_220
REMARK   78  A    between atoms: C1'_221  and  N1_222
REMARK   79  A    between atoms: P_230  and  OP1_231
REMARK   80  A    between atoms: C2'_239  and  O2'_240
REMARK   81  A    between atoms: C1'_241  and  N1_242
REMARK   82  A    between atoms: P_250  and  OP2_252
REMARK   83  A    between atoms: C2'_259  and  O2'_260
REMARK   84  A    between atoms: C1'_261  and  N1_262
REMARK   85  A    between atoms: P_270  and  OP2_272
REMARK   86  A    between atoms: C2'_279  and  O2'_280
REMARK   87  A    between atoms: C1'_281  and  N9_282
REMARK   88  A    between atoms: P_292  and  OP2_294
REMARK   89  A    between atoms: C2'_301  and  O2'_302
REMARK   90  A    between atoms: C1'_303  and  N1_304
REMARK   91  A    between atoms: P_312  and  OP2_314
REMARK   92  A    between atoms: C2'_321  and  O2'_322
REMARK   93  A    between atoms: C1'_323  and  N1_324
REMARK   94  A    between atoms: P_332  and  OP1_333
REMARK   95  A    between atoms: C2'_341  and  O2'_342
REMARK   96  A    between atoms: C1'_343  and  N1_344
REMARK   97  A    between atoms: P_352  and  OP2_354
REMARK   98  A    between atoms: C2'_361  and  O2'_362
REMARK   99  A    between atoms: C1'_363  and  N9_364
REMARK  100  A    between atoms: P_375  and  OP2_377
REMARK  101  A    between atoms: C2'_384  and  O2'_385
REMARK  102  A    between atoms: C1'_386  and  N9_387
REMARK  103  A    between atoms: P_397  and  OP2_399
REMARK  104  A    between atoms: C2'_406  and  O2'_407
REMARK  105  A    between atoms: C1'_408  and  N9_409
REMARK  106  A    between atoms: P_419  and  OP2_421
REMARK  107  A    between atoms: C2'_428  and  O2'_429
REMARK  108  A    between atoms: C1'_430  and  N9_431
REMARK  109  A    between atoms: P_441  and  OP2_443
REMARK  110  A    between atoms: C2'_450  and  O2'_451
REMARK  111  A    between atoms: C1'_452  and  N1_453
REMARK  112  A    between atoms: P_461  and  OP2_463
REMARK  113  A    between atoms: C2'_470  and  O2'_471
REMARK  114  A    between atoms: C1'_472  and  N1_473
REMARK  115  A    between atoms: P_481  and  OP2_483
REMARK  116  A    between atoms: C2'_490  and  O2'_491
REMARK  117  A    between atoms: C1'_492  and  N1_493
REMARK  118  A    between atoms: P_501  and  OP2_503
REMARK  119  A    between atoms: C2'_510  and  O2'_511
REMARK  120  A    between atoms: C1'_512  and  N1_513
REMARK  121  A    between atoms: P_521  and  OP2_523
REMARK  122  A    between atoms: C2'_530  and  O2'_531
REMARK  123  A    between atoms: C1'_532  and  N1_533
REMARK  124  A    between atoms: P_541  and  OP2_543
REMARK  125  A    between atoms: C2'_550  and  O2'_551
REMARK  126  A    between atoms: C1'_552  and  N1_553
REMARK  127  A    between atoms: P_561  and  OP2_563
REMARK  128  A    between atoms: C2'_570  and  O2'_571
REMARK  129  A    between atoms: C1'_572  and  N1_573
REMARK  130  A    between atoms: P_581  and  OP2_583
REMARK  131  A    between atoms: C2'_590  and  O2'_591
REMARK  132  A    between atoms: C1'_592  and  N9_593
REMARK  133  A    between atoms: P_603  and  OP2_605
REMARK  134  A    between atoms: C2'_612  and  O2'_613
REMARK  135  A    between atoms: C1'_614  and  N9_615
REMARK  136  A    between atoms: P_625  and  OP2_627
REMARK  137  A    between atoms: C2'_634  and  O2'_635
REMARK  138  A    between atoms: C1'_636  and  N9_637
REMARK  139  A    between atoms: P_647  and  OP2_649
REMARK  140  A    between atoms: C2'_656  and  O2'_657
REMARK  141  A    between atoms: C1'_658  and  N9_659
REMARK  142  A    between atoms: P_669  and  OP2_671
REMARK  143  A    between atoms: C2'_678  and  O2'_679
REMARK  144  A    between atoms: C1'_680  and  N1_681
REMARK  145  A    between atoms: P_689  and  OP1_690
REMARK  146  A    between atoms: C2'_698  and  O2'_699
REMARK  147  A    between atoms: C1'_700  and  N9_701
REMARK  148  A    between atoms: C6_705  and  N6_706
REMARK  149  A    between atoms: P_711  and  OP2_713
REMARK  150  A    between atoms: C2'_720  and  O2'_721
REMARK  151  A    between atoms: C1'_722  and  N9_723
REMARK  152  A    between atoms: C6_727  and  N6_728
REMARK  153  A    between atoms: P_733  and  OP2_735
REMARK  154  A    between atoms: C2'_742  and  O2'_743
REMARK  155  A    between atoms: C1'_744  and  N1_745
REMARK  156  A    between atoms: P_753  and  OP2_755
REMARK  157  A    between atoms: C2'_762  and  O2'_763
REMARK  158  A    between atoms: C1'_764  and  N9_765
REMARK  159  A    between atoms: P_775  and  OP2_777
REMARK  160  A    between atoms: C2'_784  and  O2'_785
REMARK  161  A    between atoms: C1'_786  and  N1_787
REMARK  162  A    between atoms: P_795  and  OP2_797
REMARK  163  A    between atoms: C2'_804  and  O2'_805
REMARK  164  A    between atoms: C1'_806  and  N1_807
REMARK  165  A    between atoms: P_815  and  OP2_817
REMARK  166  A    between atoms: C2'_824  and  O2'_825
REMARK  167  A    between atoms: C1'_826  and  N1_827
REMARK  168  A    between atoms: P_835  and  OP1_836
REMARK  169  A    between atoms: C2'_844  and  O2'_845
REMARK  170  A    between atoms: C1'_846  and  N1_847
REMARK  171  A    between atoms: P_855  and  OP1_856
REMARK  172  A    between atoms: C2'_864  and  O2'_865
REMARK  173  A    between atoms: C1'_866  and  N1_867
REMARK  174  A    between atoms: P_875  and  OP1_876
REMARK  175  A    between atoms: C2'_884  and  O2'_885
REMARK  176  A    between atoms: C1'_886  and  N9_887
REMARK  177  A    between atoms: C6_891  and  N6_892
REMARK  178  A    between atoms: P_897  and  OP1_898
REMARK  179  A    between atoms: C2'_906  and  O2'_907
REMARK  180  A    between atoms: C1'_908  and  N1_909
REMARK  181  A    between atoms: P_917  and  OP1_918
REMARK  182  A    between atoms: C2'_926  and  O2'_927
REMARK  183  A    between atoms: C1'_928  and  N1_929
REMARK  184  A    between atoms: P_937  and  OP1_938
REMARK  185  A    between atoms: C2'_946  and  O2'_947
REMARK  186  A    between atoms: C1'_948  and  N1_949
REMARK  187  A    between atoms: P_957  and  OP1_958
REMARK  188  A    between atoms: C2'_966  and  O2'_967
REMARK  189  A    between atoms: C1'_968  and  N1_969
REMARK  190  A    between atoms: P_977  and  OP1_978
REMARK  191  A    between atoms: C2'_986  and  O2'_987
REMARK  192  A    between atoms: C1'_988  and  N9_989
REMARK  193  A    between atoms: C6_993  and  N6_994
REMARK  194  A    between atoms: P_999  and  OP1_1000
REMARK  195  A    between atoms: C2'_1008  and  O2'_1009
REMARK  196  A    between atoms: C1'_1010  and  N1_1011
REMARK  197  A    between atoms: P_1019  and  OP1_1020
REMARK  198  A    between atoms: C2'_1028  and  O2'_1029
REMARK  199  A    between atoms: C1'_1030  and  N1_1031
REMARK  200  A    between atoms: P_1039  and  OP1_1040
REMARK  201  A    between atoms: C2'_1048  and  O2'_1049
REMARK  202  A    between atoms: C1'_1050  and  N1_1051
REMARK  203  A    between atoms: P_1059  and  OP1_1060
REMARK  204  A    between atoms: C2'_1068  and  O2'_1069
REMARK  205  A    between atoms: C1'_1070  and  N1_1071
REMARK  206  A    between atoms: P_1079  and  OP1_1080
REMARK  207  A    between atoms: C2'_1088  and  O2'_1089
REMARK  208  A    between atoms: C1'_1090  and  N9_1091
REMARK  209  A    between atoms: P_1101  and  OP2_1103
REMARK  210  A    between atoms: C2'_1110  and  O2'_1111
REMARK  211  A    between atoms: C1'_1112  and  N9_1113
REMARK  212  A    between atoms: P_1123  and  OP2_1125
REMARK  213  A    between atoms: C2'_1132  and  O2'_1133
REMARK  214  A    between atoms: C1'_1134  and  N9_1135
REMARK  215  A    between atoms: P_1145  and  OP2_1147
REMARK  216  A    between atoms: C2'_1154  and  O2'_1155
REMARK  217  A    between atoms: C1'_1156  and  N9_1157
REMARK  218  A    between atoms: P_1167  and  OP1_1168
REMARK  219  A    between atoms: C2'_1176  and  O2'_1177
REMARK  220  A    between atoms: C1'_1178  and  N9_1179
REMARK  221  A    between atoms: C6_1183  and  N6_1184
REMARK  222  A    between atoms: P_1189  and  OP1_1190
REMARK  223  A    between atoms: C2'_1198  and  O2'_1199
REMARK  224  A    between atoms: C1'_1200  and  N1_1201
REMARK  225  A    between atoms: P_1209  and  OP1_1210
REMARK  226  A    between atoms: C2'_1218  and  O2'_1219
REMARK  227  A    between atoms: C1'_1220  and  N9_1221
REMARK  228  A    between atoms: C6_1225  and  N6_1226
REMARK  229  A    between atoms: P_1231  and  OP1_1232
REMARK  230  A    between atoms: C2'_1240  and  O2'_1241
REMARK  231  A    between atoms: C1'_1242  and  N9_1243
REMARK  232  A    between atoms: P_1254  and  OP2_1256
REMARK  233  A    between atoms: C3'_1261  and  O3'_1262
REMARK  234  A    between atoms: O3'_1262  and  P_1276
REMARK  235  A    between atoms: C2'_1263  and  O2'_1264
REMARK  236  A    between atoms: P_1276  and  OP1_1277
REMARK  237  A    between atoms: P_1276  and  O5'_1279
REMARK  238  A    between atoms: O5'_1279  and  C5'_1280
REMARK  239  A    between atoms: C5'_1280  and  C4'_1281
REMARK  240  A    between atoms: C3'_1283  and  O3'_1284
REMARK  241  A    between atoms: O3'_1284  and  P_1296
REMARK  242  A    between atoms: C2'_1285  and  O2'_1286
REMARK  243  A    between atoms: C1'_1287  and  N1_1288
REMARK  244  A    between atoms: P_1296  and  OP1_1297
REMARK  245  A    between atoms: P_1296  and  O5'_1299
REMARK  246  A    between atoms: O5'_1299  and  C5'_1300
REMARK  247  A    between atoms: C5'_1300  and  C4'_1301
REMARK  248  A    between atoms: C3'_1303  and  O3'_1304
REMARK  249  A    between atoms: O3'_1304  and  P_1316
REMARK  250  A    between atoms: C2'_1305  and  O2'_1306
REMARK  251  A    between atoms: C1'_1307  and  N1_1308
REMARK  252  A    between atoms: P_1316  and  OP1_1317
REMARK  253  A    between atoms: P_1316  and  O5'_1319
REMARK  254  A    between atoms: O5'_1319  and  C5'_1320
REMARK  255  A    between atoms: C5'_1320  and  C4'_1321
REMARK  256  A    between atoms: C3'_1323  and  O3'_1324
REMARK  257  A    between atoms: O3'_1324  and  P_1338
REMARK  258  A    between atoms: C2'_1325  and  O2'_1326
REMARK  259  A    between atoms: C1'_1327  and  N9_1328
REMARK  260  A    between atoms: C6_1332  and  N6_1333
REMARK  261  A    between atoms: P_1338  and  OP1_1339
REMARK  262  A    between atoms: P_1338  and  O5'_1341
REMARK  263  A    between atoms: O5'_1341  and  C5'_1342
REMARK  264  A    between atoms: C5'_1342  and  C4'_1343
REMARK  265  A    between atoms: C3'_1345  and  O3'_1346
REMARK  266  A    between atoms: O3'_1346  and  P_1358
REMARK  267  A    between atoms: C2'_1347  and  O2'_1348
REMARK  268  A    between atoms: C1'_1349  and  N1_1350
REMARK  269  A    between atoms: P_1358  and  OP1_1359
REMARK  270  A    between atoms: P_1358  and  O5'_1361
REMARK  271  A    between atoms: O5'_1361  and  C5'_1362
REMARK  272  A    between atoms: C5'_1362  and  C4'_1363
REMARK  273  A    between atoms: C3'_1365  and  O3'_1366
REMARK  274  A    between atoms: O3'_1366  and  P_1380
REMARK  275  A    between atoms: C2'_1367  and  O2'_1368
REMARK  276  A    between atoms: C1'_1369  and  N9_1370
REMARK  277  A    between atoms: C6_1374  and  N6_1375
REMARK  278  A    between atoms: P_1380  and  OP1_1381
REMARK  279  A    between atoms: P_1380  and  O5'_1383
REMARK  280  A    between atoms: O5'_1383  and  C5'_1384
REMARK  281  A    between atoms: C5'_1384  and  C4'_1385
REMARK  282  A    between atoms: C3'_1387  and  O3'_1388
REMARK  283  A    between atoms: O3'_1388  and  P_1402
REMARK  284  A    between atoms: C2'_1389  and  O2'_1390
REMARK  285  A    between atoms: C1'_1391  and  N9_1392
REMARK  286  A    between atoms: C6_1396  and  N6_1397
REMARK  287  A    between atoms: P_1402  and  OP1_1403
REMARK  288  A    between atoms: P_1402  and  O5'_1405
REMARK  289  A    between atoms: O5'_1405  and  C5'_1406
REMARK  290  A    between atoms: C5'_1406  and  C4'_1407
REMARK  291  A    between atoms: C3'_1409  and  O3'_1410
REMARK  292  A    between atoms: O3'_1410  and  P_1424
REMARK  293  A    between atoms: C2'_1411  and  O2'_1412
REMARK  294  A    between atoms: C1'_1413  and  N9_1414
REMARK  295  A    between atoms: C6_1418  and  N6_1419
REMARK  296  A    between atoms: P_1424  and  OP1_1425
REMARK  297  A    between atoms: P_1424  and  O5'_1427
REMARK  298  A    between atoms: O5'_1427  and  C5'_1428
REMARK  299  A    between atoms: C5'_1428  and  C4'_1429
REMARK  300  A    between atoms: C3'_1431  and  O3'_1432
REMARK  301  A    between atoms: O3'_1432  and  P_1446
REMARK  302  A    between atoms: C2'_1433  and  O2'_1434
REMARK  303  A    between atoms: C1'_1435  and  N9_1436
REMARK  304  A    between atoms: C6_1440  and  N6_1441
REMARK  305  A    between atoms: P_1446  and  OP1_1447
REMARK  306  A    between atoms: P_1446  and  O5'_1449
REMARK  307  A    between atoms: O5'_1449  and  C5'_1450
REMARK  308  A    between atoms: C5'_1450  and  C4'_1451
REMARK  309  A    between atoms: C3'_1453  and  O3'_1454
REMARK  310  A    between atoms: O3'_1454  and  P_1468
REMARK  311  A    between atoms: C2'_1455  and  O2'_1456
REMARK  312  A    between atoms: C1'_1457  and  N9_1458
REMARK  313  A    between atoms: C6_1462  and  N6_1463
REMARK  314  A    between atoms: P_1468  and  OP1_1469
REMARK  315  A    between atoms: P_1468  and  O5'_1471
REMARK  316  A    between atoms: O5'_1471  and  C5'_1472
REMARK  317  A    between atoms: C5'_1472  and  C4'_1473
REMARK  318  A    between atoms: C3'_1475  and  O3'_1476
REMARK  319  A    between atoms: O3'_1476  and  P_1488
REMARK  320  A    between atoms: C2'_1477  and  O2'_1478
REMARK  321  A    between atoms: C1'_1479  and  N1_1480
REMARK  322  A    between atoms: P_1488  and  OP1_1489
REMARK  323  A    between atoms: P_1488  and  O5'_1491
REMARK  324  A    between atoms: O5'_1491  and  C5'_1492
REMARK  325  A    between atoms: C5'_1492  and  C4'_1493
REMARK  326  A    between atoms: C3'_1495  and  O3'_1496
REMARK  327  A    between atoms: O3'_1496  and  P_1508
REMARK  328  A    between atoms: C2'_1497  and  O2'_1498
REMARK  329  A    between atoms: C1'_1499  and  N1_1500
REMARK  330  A    between atoms: P_1508  and  OP1_1509
REMARK  331  A    between atoms: P_1508  and  O5'_1511
REMARK  332  A    between atoms: O5'_1511  and  C5'_1512
REMARK  333  A    between atoms: C5'_1512  and  C4'_1513
REMARK  334  A    between atoms: C3'_1515  and  O3'_1516
REMARK  335  A    between atoms: O3'_1516  and  P_1528
REMARK  336  A    between atoms: C2'_1517  and  O2'_1518
REMARK  337  A    between atoms: C1'_1519  and  N1_1520
REMARK  338  A    between atoms: P_1528  and  OP2_1530
REMARK  339  A    between atoms: P_1528  and  O5'_1531
REMARK  340  A    between atoms: O5'_1531  and  C5'_1532
REMARK  341  A    between atoms: C5'_1532  and  C4'_1533
REMARK  342  A    between atoms: C3'_1535  and  O3'_1536
REMARK  343  A    between atoms: O3'_1536  and  P_1548
REMARK  344  A    between atoms: C2'_1537  and  O2'_1538
REMARK  345  A    between atoms: C1'_1539  and  N1_1540
REMARK  346  A    between atoms: P_1548  and  OP2_1550
REMARK  347  A    between atoms: P_1548  and  O5'_1551
REMARK  348  A    between atoms: O5'_1551  and  C5'_1552
REMARK  349  A    between atoms: C5'_1552  and  C4'_1553
REMARK  350  A    between atoms: C3'_1555  and  O3'_1556
REMARK  351  A    between atoms: O3'_1556  and  P_1568
REMARK  352  A    between atoms: C2'_1557  and  O2'_1558
REMARK  353  A    between atoms: C1'_1559  and  N1_1560
REMARK  354  A    between atoms: P_1568  and  OP2_1570
REMARK  355  A    between atoms: P_1568  and  O5'_1571
REMARK  356  A    between atoms: O5'_1571  and  C5'_1572
REMARK  357  A    between atoms: C5'_1572  and  C4'_1573
REMARK  358  A    between atoms: C3'_1575  and  O3'_1576
REMARK  359  A    between atoms: C2'_1577  and  O2'_1578
REMARK  360  A    between atoms: C1'_1579  and  N9_1580
REMARK                            x       y       z     vdW  Elec       q    Type
REMARK                         _______ _______ _______ _____ _____    ______ ____
ROOT
ATOM      1  OP3 C   B   1      16.590   0.811  68.320  0.00  0.00    +0.000 OA
ENDROOT
BRANCH   1   2
ATOM      2  P   C   B   1      17.351  -0.009  68.144  0.00  0.00    +0.000 P 
ATOM      3  OP1 C   B   1      18.154  -0.182  66.953  0.00  0.00    +0.000 OA
ENDBRANCH   1   2
BRANCH   1   4
ATOM      4  OP2 C   B   1      15.887   0.139  67.928  0.00  0.00    +0.000 OA
ATOM      5  H   C   B   1      15.010   0.554  67.925  0.00  0.00    +0.000 HD
ENDBRANCH   1   4
TORSDOF 2
REMARK  Name = /storage/kiran-stuff/aaRS/phase2/energy_scoring/vina_182jobs/proRS_editing_Pro_PRO/ligand.h.pdb
REMARK  360 active torsions:
REMARK  status: ('A' for Active; 'I' for Inactive)
REMARK    1  A    between atoms: OP3_1  and  P_2
REMARK    2  A    between atoms: OP3_1  and  OP2_4
REMARK    3  A    between atoms: O5'_5  and  C5'_6
REMARK    4  A    between atoms: C5'_6  and  C4'_7
REMARK    5  A    between atoms: C3'_9  and  O3'_10
REMARK    6  A    between atoms: O3'_10  and  P_22
REMARK    7  A    between atoms: C2'_11  and  O2'_12
REMARK    8  A    between atoms: C1'_13  and  N1_14
REMARK    9  A    between atoms: P_22  and  OP2_24
REMARK   10  A    between atoms: P_22  and  O5'_25
REMARK   11  A    between atoms: O5'_25  and  C5'_26
REMARK   12  A    between atoms: C5'_26  and  C4'_27
REMARK   13  A    between atoms: C3'_29  and  O3'_30
REMARK   14  A    between atoms: O3'_30  and  P_42
REMARK   15  A    between atoms: C2'_31  and  O2'_32
REMARK   16  A    between atoms: C1'_33  and  N1_34
REMARK   17  A    between atoms: P_42  and  OP2_44
REMARK   18  A    between atoms: P_42  and  O5'_45
REMARK   19  A    between atoms: O5'_45  and  C5'_46
REMARK   20  A    between atoms: C5'_46  and  C4'_47
REMARK   21  A    between atoms: C3'_49  and  O3'_50
REMARK   22  A    between atoms: O3'_50  and  P_64
REMARK   23  A    between atoms: C2'_51  and  O2'_52
REMARK   24  A    between atoms: C1'_53  and  N9_54
REMARK   25  A    between atoms: C6_58  and  N6_59
REMARK   26  A    between atoms: P_64  and  OP2_66
REMARK   27  A    between atoms: P_64  and  O5'_67
REMARK   28  A    between atoms: O5'_67  and  C5'_68
REMARK   29  A    between atoms: C5'_68  and  C4'_69
REMARK   30  A    between atoms: C3'_71  and  O3'_72
REMARK   31  A    between atoms: O3'_72  and  P_86
REMARK   32  A    between atoms: C2'_73  and  O2'_74
REMARK   33  A    between atoms: C1'_75  and  N9_76
REMARK   34  A    between atoms: C6_80  and  N6_81
REMARK   35  A    between atoms: P_86  and  OP2_88
REMARK   36  A    between atoms: P_86  and  O5'_89
REMARK   37  A    between atoms: O5'_89  and  C5'_90
REMARK   38  A    between atoms: C5'_90  and  C4'_91
REMARK   39  A    between atoms: C3'_93  and  O3'_94
REMARK   40  A    between atoms: O3'_94  and  P_106
REMARK   41  A    between atoms: C2'_95  and  O2'_96
REMARK   42  A    between atoms: C1'_97  and  N1_98
REMARK   43  A    between atoms: P_106  and  OP2_108
REMARK   44  A    between atoms: P_106  and  O5'_109
REMARK   45  A    between atoms: O5'_109  and  C5'_110
REMARK   46  A    between atoms: C5'_110  and  C4'_111
REMARK   47  A    between atoms: C3'_113  and  O3'_114
REMARK   48  A    between atoms: O3'_114  and  P_128
REMARK   49  A    between atoms: C2'_115  and  O2'_116
REMARK   50  A    between atoms: C1'_117  and  N9_118
REMARK   51  A    between atoms: P_128  and  OP2_130
REMARK   52  A    between atoms: P_128  and  O5'_131
REMARK   53  A    between atoms: O5'_131  and  C5'_132
REMARK   54  A    between atoms: C5'_132  and  C4'_133
REMARK   55  A    between atoms: C3'_135  and  O3'_136
REMARK   56  A    between atoms: O3'_136  and  P_148
REMARK   57  A    between atoms: C2'_137  and  O2'_138
REMARK   58  A    between atoms: C1'_139  and  N1_140
REMARK   59  A    between atoms: P_148  and  OP2_150
REMARK   60  A    between atoms: P_148  and  O5'_151
REMARK   61  A    between atoms: O5'_151  and  C5'_152
REMARK   62  A    between atoms: C5'_152  and  C4'_153
REMARK   63  A    between atoms: C3'_155  and  O3'_156
REMARK   64  A    between atoms: O3'_156  and  P_168
REMARK   65  A    between atoms: C2'_157  and  O2'_158
REMARK   66  A    between atoms: C1'_159  and  N1_160
REMARK   67  A    between atoms: P_168  and  OP1_169
REMARK   68  A    between atoms: P_168  and  O5'_171
REMARK   69  A    between atoms: O5'_171  and  C5'_172
REMARK   70  A    between atoms: C5'_172  and  C4'_173
REMARK   71  A    between atoms: C2'_177  and  O2'_178
REMARK   72  A    between atoms: C6_184  and  N6_185
REMARK   73  A    between atoms: P_190  and  OP2_192
REMARK   74  A    between atoms: C2'_199  and  O2'_200
REMARK   75  A    between atoms: C1'_201  and  N1_202
REMARK   76  A    between atoms: P_210  and  OP1_211
REMARK   77  A    between atoms: C2'_219  and  O2'_220
REMARK   78  A    between atoms: C1'_221  and  N1_222
REMARK   79  A    between atoms: P_230  and  OP1_231
REMARK   80  A    between atoms: C2'_239  and  O2'_240
REMARK   81  A    between atoms: C1'_241  and  N1_242
REMARK   82  A    between atoms: P_250  and  OP2_252
REMARK   83  A    between atoms: C2'_259  and  O2'_260
REMARK   84  A    between atoms: C1'_261  and  N1_262
REMARK   85  A    between atoms: P_270  and  OP2_272
REMARK   86  A    between atoms: C2'_279  and  O2'_280
REMARK   87  A    between atoms: C1'_281  and  N9_282
REMARK   88  A    between atoms: P_292  and  OP2_294
REMARK   89  A    between atoms: C2'_301  and  O2'_302
REMARK   90  A    between atoms: C1'_303  and  N1_304
REMARK   91  A    between atoms: P_312  and  OP2_314
REMARK   92  A    between atoms: C2'_321  and  O2'_322
REMARK   93  A    between atoms: C1'_323  and  N1_324
REMARK   94  A    between atoms: P_332  and  OP1_333
REMARK   95  A    between atoms: C2'_341  and  O2'_342
REMARK   96  A    between atoms: C1'_343  and  N1_344
REMARK   97  A    between atoms: P_352  and  OP2_354
REMARK   98  A    between atoms: C2'_361  and  O2'_362
REMARK   99  A    between atoms: C1'_363  and  N9_364
REMARK  100  A    between atoms: P_375  and  OP2_377
REMARK  101  A    between atoms: C2'_384  and  O2'_385
REMARK  102  A    between atoms: C1'_386  and  N9_387
REMARK  103  A    between atoms: P_397  and  OP2_399
REMARK  104  A    between atoms: C2'_406  and  O2'_407
REMARK  105  A    between atoms: C1'_408  and  N9_409
REMARK  106  A    between atoms: P_419  and  OP2_421
REMARK  107  A    between atoms: C2'_428  and  O2'_429
REMARK  108  A    between atoms: C1'_430  and  N9_431
REMARK  109  A    between atoms: P_441  and  OP2_443
REMARK  110  A    between atoms: C2'_450  and  O2'_451
REMARK  111  A    between atoms: C1'_452  and  N1_453
REMARK  112  A    between atoms: P_461  and  OP2_463
REMARK  113  A    between atoms: C2'_470  and  O2'_471
REMARK  114  A    between atoms: C1'_472  and  N1_473
REMARK  115  A    between atoms: P_481  and  OP2_483
REMARK  116  A    between atoms: C2'_490  and  O2'_491
REMARK  117  A    between atoms: C1'_492  and  N1_493
REMARK  118  A    between atoms: P_501  and  OP2_503
REMARK  119  A    between atoms: C2'_510  and  O2'_511
REMARK  120  A    between atoms: C1'_512  and  N1_513
REMARK  121  A    between atoms: P_521  and  OP2_523
REMARK  122  A    between atoms: C2'_530  and  O2'_531
REMARK  123  A    between atoms: C1'_532  and  N1_533
REMARK  124  A    between atoms: P_541  and  OP2_543
REMARK  125  A    between atoms: C2'_550  and  O2'_551
REMARK  126  A    between atoms: C1'_552  and  N1_553
REMARK  127  A    between atoms: P_561  and  OP2_563
REMARK  128  A    between atoms: C2'_570  and  O2'_571
REMARK  129  A    between atoms: C1'_572  and  N1_573
REMARK  130  A    between atoms: P_581  and  OP2_583
REMARK  131  A    between atoms: C2'_590  and  O2'_591
REMARK  132  A    between atoms: C1'_592  and  N9_593
REMARK  133  A    between atoms: P_603  and  OP2_605
REMARK  134  A    between atoms: C2'_612  and  O2'_613
REMARK  135  A    between atoms: C1'_614  and  N9_615
REMARK  136  A    between atoms: P_625  and  OP2_627
REMARK  137  A    between atoms: C2'_634  and  O2'_635
REMARK  138  A    between atoms: C1'_636  and  N9_637
REMARK  139  A    between atoms: P_647  and  OP2_649
REMARK  140  A    between atoms: C2'_656  and  O2'_657
REMARK  141  A    between atoms: C1'_658  and  N9_659
REMARK  142  A    between atoms: P_669  and  OP2_671
REMARK  143  A    between atoms: C2'_678  and  O2'_679
REMARK  144  A    between atoms: C1'_680  and  N1_681
REMARK  145  A    between atoms: P_689  and  OP1_690
REMARK  146  A    between atoms: C2'_698  and  O2'_699
REMARK  147  A    between atoms: C1'_700  and  N9_701
REMARK  148  A    between atoms: C6_705  and  N6_706
REMARK  149  A    between atoms: P_711  and  OP2_713
REMARK  150  A    between atoms: C2'_720  and  O2'_721
REMARK  151  A    between atoms: C1'_722  and  N9_723
REMARK  152  A    between atoms: C6_727  and  N6_728
REMARK  153  A    between atoms: P_733  and  OP2_735
REMARK  154  A    between atoms: C2'_742  and  O2'_743
REMARK  155  A    between atoms: C1'_744  and  N1_745
REMARK  156  A    between atoms: P_753  and  OP2_755
REMARK  157  A    between atoms: C2'_762  and  O2'_763
REMARK  158  A    between atoms: C1'_764  and  N9_765
REMARK  159  A    between atoms: P_775  and  OP2_777
REMARK  160  A    between atoms: C2'_784  and  O2'_785
REMARK  161  A    between atoms: C1'_786  and  N1_787
REMARK  162  A    between atoms: P_795  and  OP2_797
REMARK  163  A    between atoms: C2'_804  and  O2'_805
REMARK  164  A    between atoms: C1'_806  and  N1_807
REMARK  165  A    between atoms: P_815  and  OP2_817
REMARK  166  A    between atoms: C2'_824  and  O2'_825
REMARK  167  A    between atoms: C1'_826  and  N1_827
REMARK  168  A    between atoms: P_835  and  OP1_836
REMARK  169  A    between atoms: C2'_844  and  O2'_845
REMARK  170  A    between atoms: C1'_846  and  N1_847
REMARK  171  A    between atoms: P_855  and  OP1_856
REMARK  172  A    between atoms: C2'_864  and  O2'_865
REMARK  173  A    between atoms: C1'_866  and  N1_867
REMARK  174  A    between atoms: P_875  and  OP1_876
REMARK  175  A    between atoms: C2'_884  and  O2'_885
REMARK  176  A    between atoms: C1'_886  and  N9_887
REMARK  177  A    between atoms: C6_891  and  N6_892
REMARK  178  A    between atoms: P_897  and  OP1_898
REMARK  179  A    between atoms: C2'_906  and  O2'_907
REMARK  180  A    between atoms: C1'_908  and  N1_909
REMARK  181  A    between atoms: P_917  and  OP1_918
REMARK  182  A    between atoms: C2'_926  and  O2'_927
REMARK  183  A    between atoms: C1'_928  and  N1_929
REMARK  184  A    between atoms: P_937  and  OP1_938
REMARK  185  A    between atoms: C2'_946  and  O2'_947
REMARK  186  A    between atoms: C1'_948  and  N1_949
REMARK  187  A    between atoms: P_957  and  OP1_958
REMARK  188  A    between atoms: C2'_966  and  O2'_967
REMARK  189  A    between atoms: C1'_968  and  N1_969
REMARK  190  A    between atoms: P_977  and  OP1_978
REMARK  191  A    between atoms: C2'_986  and  O2'_987
REMARK  192  A    between atoms: C1'_988  and  N9_989
REMARK  193  A    between atoms: C6_993  and  N6_994
REMARK  194  A    between atoms: P_999  and  OP1_1000
REMARK  195  A    between atoms: C2'_1008  and  O2'_1009
REMARK  196  A    between atoms: C1'_1010  and  N1_1011
REMARK  197  A    between atoms: P_1019  and  OP1_1020
REMARK  198  A    between atoms: C2'_1028  and  O2'_1029
REMARK  199  A    between atoms: C1'_1030  and  N1_1031
REMARK  200  A    between atoms: P_1039  and  OP1_1040
REMARK  201  A    between atoms: C2'_1048  and  O2'_1049
REMARK  202  A    between atoms: C1'_1050  and  N1_1051
REMARK  203  A    between atoms: P_1059  and  OP1_1060
REMARK  204  A    between atoms: C2'_1068  and  O2'_1069
REMARK  205  A    between atoms: C1'_1070  and  N1_1071
REMARK  206  A    between atoms: P_1079  and  OP1_1080
REMARK  207  A    between atoms: C2'_1088  and  O2'_1089
REMARK  208  A    between atoms: C1'_1090  and  N9_1091
REMARK  209  A    between atoms: P_1101  and  OP2_1103
REMARK  210  A    between atoms: C2'_1110  and  O2'_1111
REMARK  211  A    between atoms: C1'_1112  and  N9_1113
REMARK  212  A    between atoms: P_1123  and  OP2_1125
REMARK  213  A    between atoms: C2'_1132  and  O2'_1133
REMARK  214  A    between atoms: C1'_1134  and  N9_1135
REMARK  215  A    between atoms: P_1145  and  OP2_1147
REMARK  216  A    between atoms: C2'_1154  and  O2'_1155
REMARK  217  A    between atoms: C1'_1156  and  N9_1157
REMARK  218  A    between atoms: P_1167  and  OP1_1168
REMARK  219  A    between atoms: C2'_1176  and  O2'_1177
REMARK  220  A    between atoms: C1'_1178  and  N9_1179
REMARK  221  A    between atoms: C6_1183  and  N6_1184
REMARK  222  A    between atoms: P_1189  and  OP1_1190
REMARK  223  A    between atoms: C2'_1198  and  O2'_1199
REMARK  224  A    between atoms: C1'_1200  and  N1_1201
REMARK  225  A    between atoms: P_1209  and  OP1_1210
REMARK  226  A    between atoms: C2'_1218  and  O2'_1219
REMARK  227  A    between atoms: C1'_1220  and  N9_1221
REMARK  228  A    between atoms: C6_1225  and  N6_1226
REMARK  229  A    between atoms: P_1231  and  OP1_1232
REMARK  230  A    between atoms: C2'_1240  and  O2'_1241
REMARK  231  A    between atoms: C1'_1242  and  N9_1243
REMARK  232  A    between atoms: P_1254  and  OP2_1256
REMARK  233  A    between atoms: C3'_1261  and  O3'_1262
REMARK  234  A    between atoms: O3'_1262  and  P_1276
REMARK  235  A    between atoms: C2'_1263  and  O2'_1264
REMARK  236  A    between atoms: P_1276  and  OP1_1277
REMARK  237  A    between atoms: P_1276  and  O5'_1279
REMARK  238  A    between atoms: O5'_1279  and  C5'_1280
REMARK  239  A    between atoms: C5'_1280  and  C4'_1281
REMARK  240  A    between atoms: C3'_1283  and  O3'_1284
REMARK  241  A    between atoms: O3'_1284  and  P_1296
REMARK  242  A    between atoms: C2'_1285  and  O2'_1286
REMARK  243  A    between atoms: C1'_1287  and  N1_1288
REMARK  244  A    between atoms: P_1296  and  OP1_1297
REMARK  245  A    between atoms: P_1296  and  O5'_1299
REMARK  246  A    between atoms: O5'_1299  and  C5'_1300
REMARK  247  A    between atoms: C5'_1300  and  C4'_1301
REMARK  248  A    between atoms: C3'_1303  and  O3'_1304
REMARK  249  A    between atoms: O3'_1304  and  P_1316
REMARK  250  A    between atoms: C2'_1305  and  O2'_1306
REMARK  251  A    between atoms: C1'_1307  and  N1_1308
REMARK  252  A    between atoms: P_1316  and  OP1_1317
REMARK  253  A    between atoms: P_1316  and  O5'_1319
REMARK  254  A    between atoms: O5'_1319  and  C5'_1320
REMARK  255  A    between atoms: C5'_1320  and  C4'_1321
REMARK  256  A    between atoms: C3'_1323  and  O3'_1324
REMARK  257  A    between atoms: O3'_1324  and  P_1338
REMARK  258  A    between atoms: C2'_1325  and  O2'_1326
REMARK  259  A    between atoms: C1'_1327  and  N9_1328
REMARK  260  A    between atoms: C6_1332  and  N6_1333
REMARK  261  A    between atoms: P_1338  and  OP1_1339
REMARK  262  A    between atoms: P_1338  and  O5'_1341
REMARK  263  A    between atoms: O5'_1341  and  C5'_1342
REMARK  264  A    between atoms: C5'_1342  and  C4'_1343
REMARK  265  A    between atoms: C3'_1345  and  O3'_1346
REMARK  266  A    between atoms: O3'_1346  and  P_1358
REMARK  267  A    between atoms: C2'_1347  and  O2'_1348
REMARK  268  A    between atoms: C1'_1349  and  N1_1350
REMARK  269  A    between atoms: P_1358  and  OP1_1359
REMARK  270  A    between atoms: P_1358  and  O5'_1361
REMARK  271  A    between atoms: O5'_1361  and  C5'_1362
REMARK  272  A    between atoms: C5'_1362  and  C4'_1363
REMARK  273  A    between atoms: C3'_1365  and  O3'_1366
REMARK  274  A    between atoms: O3'_1366  and  P_1380
REMARK  275  A    between atoms: C2'_1367  and  O2'_1368
REMARK  276  A    between atoms: C1'_1369  and  N9_1370
REMARK  277  A    between atoms: C6_1374  and  N6_1375
REMARK  278  A    between atoms: P_1380  and  OP1_1381
REMARK  279  A    between atoms: P_1380  and  O5'_1383
REMARK  280  A    between atoms: O5'_1383  and  C5'_1384
REMARK  281  A    between atoms: C5'_1384  and  C4'_1385
REMARK  282  A    between atoms: C3'_1387  and  O3'_1388
REMARK  283  A    between atoms: O3'_1388  and  P_1402
REMARK  284  A    between atoms: C2'_1389  and  O2'_1390
REMARK  285  A    between atoms: C1'_1391  and  N9_1392
REMARK  286  A    between atoms: C6_1396  and  N6_1397
REMARK  287  A    between atoms: P_1402  and  OP1_1403
REMARK  288  A    between atoms: P_1402  and  O5'_1405
REMARK  289  A    between atoms: O5'_1405  and  C5'_1406
REMARK  290  A    between atoms: C5'_1406  and  C4'_1407
REMARK  291  A    between atoms: C3'_1409  and  O3'_1410
REMARK  292  A    between atoms: O3'_1410  and  P_1424
REMARK  293  A    between atoms: C2'_1411  and  O2'_1412
REMARK  294  A    between atoms: C1'_1413  and  N9_1414
REMARK  295  A    between atoms: C6_1418  and  N6_1419
REMARK  296  A    between atoms: P_1424  and  OP1_1425
REMARK  297  A    between atoms: P_1424  and  O5'_1427
REMARK  298  A    between atoms: O5'_1427  and  C5'_1428
REMARK  299  A    between atoms: C5'_1428  and  C4'_1429
REMARK  300  A    between atoms: C3'_1431  and  O3'_1432
REMARK  301  A    between atoms: O3'_1432  and  P_1446
REMARK  302  A    between atoms: C2'_1433  and  O2'_1434
REMARK  303  A    between atoms: C1'_1435  and  N9_1436
REMARK  304  A    between atoms: C6_1440  and  N6_1441
REMARK  305  A    between atoms: P_1446  and  OP1_1447
REMARK  306  A    between atoms: P_1446  and  O5'_1449
REMARK  307  A    between atoms: O5'_1449  and  C5'_1450
REMARK  308  A    between atoms: C5'_1450  and  C4'_1451
REMARK  309  A    between atoms: C3'_1453  and  O3'_1454
REMARK  310  A    between atoms: O3'_1454  and  P_1468
REMARK  311  A    between atoms: C2'_1455  and  O2'_1456
REMARK  312  A    between atoms: C1'_1457  and  N9_1458
REMARK  313  A    between atoms: C6_1462  and  N6_1463
REMARK  314  A    between atoms: P_1468  and  OP1_1469
REMARK  315  A    between atoms: P_1468  and  O5'_1471
REMARK  316  A    between atoms: O5'_1471  and  C5'_1472
REMARK  317  A    between atoms: C5'_1472  and  C4'_1473
REMARK  318  A    between atoms: C3'_1475  and  O3'_1476
REMARK  319  A    between atoms: O3'_1476  and  P_1488
REMARK  320  A    between atoms: C2'_1477  and  O2'_1478
REMARK  321  A    between atoms: C1'_1479  and  N1_1480
REMARK  322  A    between atoms: P_1488  and  OP1_1489
REMARK  323  A    between atoms: P_1488  and  O5'_1491
REMARK  324  A    between atoms: O5'_1491  and  C5'_1492
REMARK  325  A    between atoms: C5'_1492  and  C4'_1493
REMARK  326  A    between atoms: C3'_1495  and  O3'_1496
REMARK  327  A    between atoms: O3'_1496  and  P_1508
REMARK  328  A    between atoms: C2'_1497  and  O2'_1498
REMARK  329  A    between atoms: C1'_1499  and  N1_1500
REMARK  330  A    between atoms: P_1508  and  OP1_1509
REMARK  331  A    between atoms: P_1508  and  O5'_1511
REMARK  332  A    between atoms: O5'_1511  and  C5'_1512
REMARK  333  A    between atoms: C5'_1512  and  C4'_1513
REMARK  334  A    between atoms: C3'_1515  and  O3'_1516
REMARK  335  A    between atoms: O3'_1516  and  P_1528
REMARK  336  A    between atoms: C2'_1517  and  O2'_1518
REMARK  337  A    between atoms: C1'_1519  and  N1_1520
REMARK  338  A    between atoms: P_1528  and  OP2_1530
REMARK  339  A    between atoms: P_1528  and  O5'_1531
REMARK  340  A    between atoms: O5'_1531  and  C5'_1532
REMARK  341  A    between atoms: C5'_1532  and  C4'_1533
REMARK  342  A    between atoms: C3'_1535  and  O3'_1536
REMARK  343  A    between atoms: O3'_1536  and  P_1548
REMARK  344  A    between atoms: C2'_1537  and  O2'_1538
REMARK  345  A    between atoms: C1'_1539  and  N1_1540
REMARK  346  A    between atoms: P_1548  and  OP2_1550
REMARK  347  A    between atoms: P_1548  and  O5'_1551
REMARK  348  A    between atoms: O5'_1551  and  C5'_1552
REMARK  349  A    between atoms: C5'_1552  and  C4'_1553
REMARK  350  A    between atoms: C3'_1555  and  O3'_1556
REMARK  351  A    between atoms: O3'_1556  and  P_1568
REMARK  352  A    between atoms: C2'_1557  and  O2'_1558
REMARK  353  A    between atoms: C1'_1559  and  N1_1560
REMARK  354  A    between atoms: P_1568  and  OP2_1570
REMARK  355  A    between atoms: P_1568  and  O5'_1571
REMARK  356  A    between atoms: O5'_1571  and  C5'_1572
REMARK  357  A    between atoms: C5'_1572  and  C4'_1573
REMARK  358  A    between atoms: C3'_1575  and  O3'_1576
REMARK  359  A    between atoms: C2'_1577  and  O2'_1578
REMARK  360  A    between atoms: C1'_1579  and  N9_1580
REMARK                            x       y       z     vdW  Elec       q    Type
REMARK                         _______ _______ _______ _____ _____    ______ ____
ROOT
ATOM      1  C4' A   B   9       5.396   0.517  46.324  0.00  0.00    +0.000 C 
ATOM      2  O4' A   B   9       6.736   0.937  46.706  0.00  0.00    +0.000 OA
ATOM      3  C3' A   B   9       5.098  -0.734  47.160  0.00  0.00    +0.000 C 
ATOM      4  O3' A   B   9       5.457  -1.885  46.410  0.00  0.00    +0.000 OA
ATOM      5  C2' A   B   9       6.039  -0.596  48.346  0.00  0.00    +0.000 C 
ATOM      6  C1' A   B   9       7.251   0.042  47.674  0.00  0.00    +0.000 C 
ATOM      7  N9  A   B   9       8.106   0.790  48.607  0.00  0.00    +0.000 N 
ATOM      8  C8  A   B   9       7.734   1.762  49.503  0.00  0.00    +0.000 A 
ATOM      9  N7  A   B   9       8.737   2.251  50.199  0.00  0.00    +0.000 NA
ATOM     10  C5  A   B   9       9.840   1.551  49.730  0.00  0.00    +0.000 A 
ATOM     11  C6  A   B   9      11.208   1.599  50.060  0.00  0.00    +0.000 C 
ATOM     12  N1  A   B   9      12.046   0.764  49.405  0.00  0.00    +0.000 N 
ATOM     13  C2  A   B   9      11.538  -0.054  48.475  0.00  0.00    +0.000 C 
ATOM     14  N3  A   B   9      10.275  -0.194  48.077  0.00  0.00    +0.000 NA
ATOM     15  C4  A   B   9       9.472   0.645  48.750  0.00  0.00    +0.000 A 
ATOM     16  P   U   B  10       4.386  -2.955  46.031  0.00  0.00    +0.000 P 
ATOM     17  OP1 U   B  10       4.375  -3.115  44.559  0.00  0.00    +0.000 OA
ATOM     18  O5' U   B  10       5.068  -4.293  46.630  0.00  0.00    +0.000 OA
ATOM     19  C5' U   B  10       4.370  -5.214  47.440  0.00  0.00    +0.000 C 
ATOM     20  C4' U   B  10       3.257  -5.872  46.666  0.00  0.00    +0.000 C 
ATOM     21  O4' U   B  10       3.753  -6.380  45.401  0.00  0.00    +0.000 OA
ATOM     22  C3' U   B  10       2.639  -7.092  47.337  0.00  0.00    +0.000 C 
ATOM     23  O3' U   B  10       1.686  -6.721  48.335  0.00  0.00    +0.000 OA
ATOM     24  C2' U   B  10       2.014  -7.810  46.148  0.00  0.00    +0.000 C 
ATOM     25  C1' U   B  10       3.051  -7.550  45.041  0.00  0.00    +0.000 C 
ATOM     26  P   U   B  11       1.393  -7.737  49.518  0.00  0.00    +0.000 P 
ATOM     27  OP2 U   B  11       2.664  -8.378  49.925  0.00  0.00    +0.000 OA
ATOM     28  O5' U   B  11       0.481  -8.835  48.825  0.00  0.00    +0.000 OA
ATOM     29  C5' U   B  11      -0.802  -8.496  48.308  0.00  0.00    +0.000 C 
ATOM     30  C4' U   B  11      -1.369  -9.604  47.456  0.00  0.00    +0.000 C 
ATOM     31  O4' U   B  11      -0.495  -9.863  46.322  0.00  0.00    +0.000 OA
ATOM     32  C3' U   B  11      -1.498 -10.954  48.122  0.00  0.00    +0.000 C 
ATOM     33  O3' U   B  11      -2.630 -11.033  48.983  0.00  0.00    +0.000 OA
ATOM     34  C2' U   B  11      -1.577 -11.889  46.918  0.00  0.00    +0.000 C 
ATOM     35  C1' U   B  11      -0.590 -11.227  45.955  0.00  0.00    +0.000 C 
ATOM     36  P   U   B  12      -2.619 -12.030  50.226  0.00  0.00    +0.000 P 
ATOM     37  OP2 U   B  12      -1.264 -12.042  50.830  0.00  0.00    +0.000 OA
ATOM     38  O5' U   B  12      -2.867 -13.441  49.537  0.00  0.00    +0.000 OA
ATOM     39  C5' U   B  12      -4.038 -13.685  48.780  0.00  0.00    +0.000 C 
ATOM     40  C4' U   B  12      -3.945 -14.993  48.031  0.00  0.00    +0.000 C 
ATOM     41  O4' U   B  12      -2.879 -14.929  47.044  0.00  0.00    +0.000 OA
ATOM     42  C3' U   B  12      -3.590 -16.202  48.867  0.00  0.00    +0.000 C 
ATOM     43  O3' U   B  12      -4.713 -16.704  49.580  0.00  0.00    +0.000 OA
ATOM     44  C2' U   B  12      -3.043 -17.166  47.817  0.00  0.00    +0.000 C 
ATOM     45  C1' U   B  12      -2.304 -16.210  46.882  0.00  0.00    +0.000 C 
ATOM     46  P   C   B  13      -4.512 -17.629  50.853  0.00  0.00    +0.000 P 
ATOM     47  OP1 C   B  13      -5.828 -17.787  51.520  0.00  0.00    +0.000 OA
ATOM     48  O5' C   B  13      -4.119 -19.022  50.192  0.00  0.00    +0.000 OA
ATOM     49  C5' C   B  13      -3.231 -19.910  50.840  0.00  0.00    +0.000 C 
ATOM     50  C4' C   B  13      -2.708 -20.936  49.868  0.00  0.00    +0.000 C 
ATOM     51  O4' C   B  13      -1.906 -20.284  48.845  0.00  0.00    +0.000 OA
ATOM     52  C3' C   B  13      -1.771 -21.967  50.465  0.00  0.00    +0.000 C 
ATOM     53  O3' C   B  13      -2.479 -23.020  51.109  0.00  0.00    +0.000 OA
ATOM     54  C2' C   B  13      -0.976 -22.418  49.249  0.00  0.00    +0.000 C 
ATOM     55  C1' C   B  13      -0.807 -21.097  48.503  0.00  0.00    +0.000 C 
ATOM     56  P   A   B  14      -1.989 -23.574  52.523  0.00  0.00    +0.000 P 
ATOM     57  OP1 A   B  14      -2.975 -24.574  53.006  0.00  0.00    +0.000 OA
ATOM     58  O5' A   B  14      -0.642 -24.332  52.147  0.00  0.00    +0.000 OA
ATOM     59  C5' A   B  14      -0.657 -25.450  51.261  0.00  0.00    +0.000 C 
ATOM     60  C4' A   B  14       0.746 -25.845  50.868  0.00  0.00    +0.000 C 
ATOM     61  O4' A   B  14       1.383 -24.756  50.154  0.00  0.00    +0.000 OA
ATOM     62  C3' A   B  14       1.696 -26.129  52.013  0.00  0.00    +0.000 C 
ATOM     63  O3' A   B  14       1.521 -27.438  52.542  0.00  0.00    +0.000 OA
ATOM     64  C2' A   B  14       3.055 -25.913  51.368  0.00  0.00    +0.000 C 
ATOM     65  C1' A   B  14       2.767 -24.734  50.444  0.00  0.00    +0.000 C 
ATOM     66  P   U   B  15       1.555 -27.701  54.108  0.00  0.00    +0.000 P 
ATOM     67  OP1 U   B  15       1.174 -29.114  54.345  0.00  0.00    +0.000 OA
ATOM     68  O5' U   B  15       3.093 -27.526  54.471  0.00  0.00    +0.000 OA
ATOM     69  C5' U   B  15       4.086 -28.328  53.847  0.00  0.00    +0.000 C 
ATOM     70  C4' U   B  15       5.478 -27.886  54.246  0.00  0.00    +0.000 C 
ATOM     71  O4' U   B  15       5.643 -26.480  53.927  0.00  0.00    +0.000 OA
ATOM     72  C3' U   B  15       5.791 -28.030  55.731  0.00  0.00    +0.000 C 
ATOM     73  O3' U   B  15       7.156 -28.359  55.905  0.00  0.00    +0.000 OA
ATOM     74  C2' U   B  15       5.544 -26.634  56.260  0.00  0.00    +0.000 C 
ATOM     75  C1' U   B  15       6.018 -25.778  55.094  0.00  0.00    +0.000 C 
ATOM     76  P   C   B  16       7.667 -29.799  55.975  0.00  0.00    +0.000 P 
ATOM     77  OP1 C   B  16       6.707 -30.729  55.319  0.00  0.00    +0.000 OA
ATOM     78  O5' C   B  16       8.965 -29.682  55.057  0.00  0.00    +0.000 OA
ATOM     79  C5' C   B  16      10.262 -29.835  55.598  0.00  0.00    +0.000 C 
ATOM     80  C4' C   B  16      11.197 -30.343  54.536  0.00  0.00    +0.000 C 
ATOM     81  O4' C   B  16      10.697 -31.598  54.018  0.00  0.00    +0.000 OA
ATOM     82  C3' C   B  16      11.342 -29.461  53.306  0.00  0.00    +0.000 C 
ATOM     83  O3' C   B  16      12.263 -28.402  53.516  0.00  0.00    +0.000 OA
ATOM     84  C2' C   B  16      11.803 -30.456  52.254  0.00  0.00    +0.000 C 
ATOM     85  C1' C   B  16      11.005 -31.700  52.641  0.00  0.00    +0.000 C 
ATOM     86  P   C   B  17      12.090 -26.994  52.795  0.00  0.00    +0.000 P 
ATOM     87  OP2 C   B  17      10.641 -26.654  52.787  0.00  0.00    +0.000 OA
ATOM     88  O5' C   B  17      12.530 -27.296  51.292  0.00  0.00    +0.000 OA
ATOM     89  C5' C   B  17      13.861 -27.711  50.995  0.00  0.00    +0.000 C 
ATOM     90  C4' C   B  17      13.989 -28.075  49.536  0.00  0.00    +0.000 C 
ATOM     91  O4' C   B  17      13.146 -29.216  49.238  0.00  0.00    +0.000 OA
ATOM     92  C3' C   B  17      13.527 -27.015  48.554  0.00  0.00    +0.000 C 
ATOM     93  O3' C   B  17      14.525 -26.025  48.338  0.00  0.00    +0.000 OA
ATOM     94  C2' C   B  17      13.221 -27.841  47.309  0.00  0.00    +0.000 C 
ATOM     95  C1' C   B  17      12.639 -29.114  47.922  0.00  0.00    +0.000 C 
ATOM     96  P   G   B  18      14.131 -24.569  47.934  0.00  0.00    +0.000 P 
ATOM     97  OP1 G   B  18      15.366 -23.746  47.842  0.00  0.00    +0.000 OA
ATOM     98  O5' G   B  18      13.548 -24.771  46.456  0.00  0.00    +0.000 OA
ATOM     99  C5' G   B  18      12.486 -23.965  45.966  0.00  0.00    +0.000 C 
ATOM    100  C4' G   B  18      11.203 -24.754  45.886  0.00  0.00    +0.000 C 
ATOM    101  O4' G   B  18      10.597 -24.827  47.200  0.00  0.00    +0.000 OA
ATOM    102  C3' G   B  18      10.119 -24.143  45.010  0.00  0.00    +0.000 C 
ATOM    103  O3' G   B  18      10.317 -24.450  43.635  0.00  0.00    +0.000 OA
ATOM    104  C2' G   B  18       8.854 -24.748  45.604  0.00  0.00    +0.000 C 
ATOM    105  C1' G   B  18       9.188 -24.730  47.094  0.00  0.00    +0.000 C 
ATOM    106  P   A   B  19       9.973 -23.391  42.524  0.00  0.00    +0.000 P 
ATOM    107  OP1 A   B  19      10.533 -23.879  41.240  0.00  0.00    +0.000 OA
ATOM    108  O5' A   B  19       8.388 -23.457  42.434  0.00  0.00    +0.000 OA
ATOM    109  C5' A   B  19       7.725 -24.663  42.068  0.00  0.00    +0.000 C 
ATOM    110  C4' A   B  19       6.225 -24.493  42.084  0.00  0.00    +0.000 C 
ATOM    111  O4' A   B  19       5.765 -24.264  43.442  0.00  0.00    +0.000 OA
ATOM    112  C3' A   B  19       5.698 -23.294  41.317  0.00  0.00    +0.000 C 
ATOM    113  O3' A   B  19       5.622 -23.540  39.918  0.00  0.00    +0.000 OA
ATOM    114  C2' A   B  19       4.341 -23.066  41.975  0.00  0.00    +0.000 C 
ATOM    115  C1' A   B  19       4.665 -23.372  43.437  0.00  0.00    +0.000 C 
ATOM    116  P   A   B  20       5.879 -22.352  38.892  0.00  0.00    +0.000 P 
ATOM    117  OP1 A   B  20       6.066 -22.952  37.546  0.00  0.00    +0.000 OA
ATOM    118  O5' A   B  20       4.490 -21.572  38.899  0.00  0.00    +0.000 OA
ATOM    119  C5' A   B  20       3.285 -22.226  38.507  0.00  0.00    +0.000 C 
ATOM    120  C4' A   B  20       2.073 -21.421  38.908  0.00  0.00    +0.000 C 
ATOM    121  O4' A   B  20       2.023 -21.286  40.354  0.00  0.00    +0.000 OA
ATOM    122  C3' A   B  20       2.035 -19.989  38.411  0.00  0.00    +0.000 C 
ATOM    123  O3' A   B  20       1.613 -19.888  37.057  0.00  0.00    +0.000 OA
ATOM    124  C2' A   B  20       1.077 -19.337  39.398  0.00  0.00    +0.000 C 
ATOM    125  C1' A   B  20       1.478 -20.026  40.701  0.00  0.00    +0.000 C 
ATOM    126  P   A   B  21       2.209 -18.742  36.123  0.00  0.00    +0.000 P 
ATOM    127  OP1 A   B  21       1.775 -19.022  34.731  0.00  0.00    +0.000 OA
ATOM    128  O5' A   B  21       1.442 -17.439  36.632  0.00  0.00    +0.000 OA
ATOM    129  C5' A   B  21       0.025 -17.343  36.532  0.00  0.00    +0.000 C 
ATOM    130  C4' A   B  21      -0.502 -16.201  37.367  0.00  0.00    +0.000 C 
ATOM    131  O4' A   B  21      -0.149 -16.405  38.760  0.00  0.00    +0.000 OA
ATOM    132  C3' A   B  21       0.068 -14.832  37.046  0.00  0.00    +0.000 C 
ATOM    133  O3' A   B  21      -0.544 -14.234  35.914  0.00  0.00    +0.000 OA
ATOM    134  C2' A   B  21      -0.188 -14.076  38.340  0.00  0.00    +0.000 C 
ATOM    135  C1' A   B  21       0.100 -15.156  39.379  0.00  0.00    +0.000 C 
ATOM    136  P   C   B  22       0.313 -13.291  34.946  0.00  0.00    +0.000 P 
ATOM    137  OP1 C   B  22      -0.552 -12.929  33.793  0.00  0.00    +0.000 OA
ATOM    138  O5' C   B  22       0.554 -11.987  35.823  0.00  0.00    +0.000 OA
ATOM    139  C5' C   B  22      -0.538 -11.186  36.262  0.00  0.00    +0.000 C 
ATOM    140  C4' C   B  22      -0.079 -10.128  37.233  0.00  0.00    +0.000 C 
ATOM    141  O4' C   B  22       0.456 -10.748  38.433  0.00  0.00    +0.000 OA
ATOM    142  C3' C   B  22       1.048  -9.242  36.752  0.00  0.00    +0.000 C 
ATOM    143  O3' C   B  22       0.596  -8.214  35.878  0.00  0.00    +0.000 OA
ATOM    144  C2' C   B  22       1.617  -8.717  38.062  0.00  0.00    +0.000 C 
ATOM    145  C1' C   B  22       1.502  -9.952  38.957  0.00  0.00    +0.000 C 
ATOM    146  P   U   B  23       1.531  -7.732  34.671  0.00  0.00    +0.000 P 
ATOM    147  OP1 U   B  23       0.727  -6.831  33.807  0.00  0.00    +0.000 OA
ATOM    148  O5' U   B  23       2.644  -6.862  35.408  0.00  0.00    +0.000 OA
ATOM    149  C5' U   B  23       2.300  -5.667  36.098  0.00  0.00    +0.000 C 
ATOM    150  C4' U   B  23       3.488  -5.101  36.835  0.00  0.00    +0.000 C 
ATOM    151  O4' U   B  23       3.883  -6.001  37.908  0.00  0.00    +0.000 OA
ATOM    152  C3' U   B  23       4.753  -4.937  36.019  0.00  0.00    +0.000 C 
ATOM    153  O3' U   B  23       4.728  -3.774  35.199  0.00  0.00    +0.000 OA
ATOM    154  C2' U   B  23       5.822  -4.898  37.101  0.00  0.00    +0.000 C 
ATOM    155  C1' U   B  23       5.284  -5.937  38.090  0.00  0.00    +0.000 C 
ATOM    156  P   U   B  24       5.428  -3.811  33.752  0.00  0.00    +0.000 P 
ATOM    157  OP1 U   B  24       5.099  -2.536  33.066  0.00  0.00    +0.000 OA
ATOM    158  O5' U   B  24       6.982  -3.805  34.100  0.00  0.00    +0.000 OA
ATOM    159  C5' U   B  24       7.580  -2.702  34.769  0.00  0.00    +0.000 C 
ATOM    160  C4' U   B  24       9.012  -2.997  35.152  0.00  0.00    +0.000 C 
ATOM    161  O4' U   B  24       9.055  -4.098  36.101  0.00  0.00    +0.000 OA
ATOM    162  C3' U   B  24       9.919  -3.454  34.028  0.00  0.00    +0.000 C 
ATOM    163  O3' U   B  24      10.378  -2.376  33.222  0.00  0.00    +0.000 OA
ATOM    164  C2' U   B  24      11.034  -4.155  34.790  0.00  0.00    +0.000 C 
ATOM    165  C1' U   B  24      10.243  -4.844  35.908  0.00  0.00    +0.000 C 
ATOM    166  P   U   B  25      10.633  -2.610  31.650  0.00  0.00    +0.000 P 
ATOM    167  OP1 U   B  25      10.960  -1.290  31.047  0.00  0.00    +0.000 OA
ATOM    168  O5' U   B  25      11.947  -3.512  31.622  0.00  0.00    +0.000 OA
ATOM    169  C5' U   B  25      13.189  -3.019  32.111  0.00  0.00    +0.000 C 
ATOM    170  C4' U   B  25      14.254  -4.090  32.089  0.00  0.00    +0.000 C 
ATOM    171  O4' U   B  25      13.883  -5.180  32.977  0.00  0.00    +0.000 OA
ATOM    172  C3' U   B  25      14.476  -4.769  30.753  0.00  0.00    +0.000 C 
ATOM    173  O3' U   B  25      15.276  -3.991  29.871  0.00  0.00    +0.000 OA
ATOM    174  C2' U   B  25      15.131  -6.079  31.167  0.00  0.00    +0.000 C 
ATOM    175  C1' U   B  25      14.359  -6.404  32.451  0.00  0.00    +0.000 C 
ATOM    176  P   U   B  26      15.044  -4.084  28.281  0.00  0.00    +0.000 P 
ATOM    177  OP1 U   B  26      15.869  -3.031  27.640  0.00  0.00    +0.000 OA
ATOM    178  O5' U   B  26      15.663  -5.505  27.907  0.00  0.00    +0.000 OA
ATOM    179  C5' U   B  26      17.053  -5.764  28.072  0.00  0.00    +0.000 C 
ATOM    180  C4' U   B  26      17.377  -7.214  27.802  0.00  0.00    +0.000 C 
ATOM    181  O4' U   B  26      16.694  -8.063  28.765  0.00  0.00    +0.000 OA
ATOM    182  C3' U   B  26      16.928  -7.752  26.460  0.00  0.00    +0.000 C 
ATOM    183  O3' U   B  26      17.804  -7.386  25.402  0.00  0.00    +0.000 OA
ATOM    184  C2' U   B  26      16.888  -9.250  26.720  0.00  0.00    +0.000 C 
ATOM    185  C1' U   B  26      16.351  -9.292  28.154  0.00  0.00    +0.000 C 
ATOM    186  P   U   B  27      17.239  -7.170  23.910  0.00  0.00    +0.000 P 
ATOM    187  OP1 U   B  27      18.327  -6.598  23.085  0.00  0.00    +0.000 OA
ATOM    188  O5' U   B  27      16.962  -8.662  23.413  0.00  0.00    +0.000 OA
ATOM    189  C5' U   B  27      18.025  -9.594  23.263  0.00  0.00    +0.000 C 
ATOM    190  C4' U   B  27      17.501 -10.989  23.012  0.00  0.00    +0.000 C 
ATOM    191  O4' U   B  27      16.703 -11.428  24.146  0.00  0.00    +0.000 OA
ATOM    192  C3' U   B  27      16.570 -11.145  21.829  0.00  0.00    +0.000 C 
ATOM    193  O3' U   B  27      17.266 -11.215  20.591  0.00  0.00    +0.000 OA
ATOM    194  C2' U   B  27      15.828 -12.426  22.179  0.00  0.00    +0.000 C 
ATOM    195  C1' U   B  27      15.661 -12.273  23.693  0.00  0.00    +0.000 C 
ATOM    196  P   U   B  28      16.607 -10.648  19.239  0.00  0.00    +0.000 P 
ATOM    197  OP1 U   B  28      17.641 -10.660  18.179  0.00  0.00    +0.000 OA
ATOM    198  O5' U   B  28      15.512 -11.756  18.885  0.00  0.00    +0.000 OA
ATOM    199  C5' U   B  28      15.893 -13.083  18.550  0.00  0.00    +0.000 C 
ATOM    200  C4' U   B  28      14.699 -14.009  18.526  0.00  0.00    +0.000 C 
ATOM    201  O4' U   B  28      14.077 -14.054  19.842  0.00  0.00    +0.000 OA
ATOM    202  C3' U   B  28      13.564 -13.609  17.605  0.00  0.00    +0.000 C 
ATOM    203  O3' U   B  28      13.817 -13.936  16.245  0.00  0.00    +0.000 OA
ATOM    204  C2' U   B  28      12.390 -14.373  18.205  0.00  0.00    +0.000 C 
ATOM    205  C1' U   B  28      12.681 -14.239  19.702  0.00  0.00    +0.000 C 
ATOM    206  P   A   B  29      13.181 -13.055  15.065  0.00  0.00    +0.000 P 
ATOM    207  OP1 A   B  29      13.791 -13.489  13.784  0.00  0.00    +0.000 OA
ATOM    208  O5' A   B  29      11.650 -13.512  15.071  0.00  0.00    +0.000 OA
ATOM    209  C5' A   B  29      11.288 -14.848  14.736  0.00  0.00    +0.000 C 
ATOM    210  C4' A   B  29       9.834 -15.114  15.055  0.00  0.00    +0.000 C 
ATOM    211  O4' A   B  29       9.599 -14.934  16.479  0.00  0.00    +0.000 OA
ATOM    212  C3' A   B  29       8.829 -14.184  14.398  0.00  0.00    +0.000 C 
ATOM    213  O3' A   B  29       8.562 -14.533  13.046  0.00  0.00    +0.000 OA
ATOM    214  C2' A   B  29       7.621 -14.336  15.313  0.00  0.00    +0.000 C 
ATOM    215  C1' A   B  29       8.291 -14.432  16.686  0.00  0.00    +0.000 C 
ATOM    216  P   A   B  30       8.156 -13.409  11.993  0.00  0.00    +0.000 P 
ATOM    217  OP1 A   B  30       8.174 -14.025  10.644  0.00  0.00    +0.000 OA
ATOM    218  O5' A   B  30       6.636 -13.096  12.379  0.00  0.00    +0.000 OA
ATOM    219  C5' A   B  30       5.633 -14.100  12.260  0.00  0.00    +0.000 C 
ATOM    220  C4' A   B  30       4.352 -13.669  12.937  0.00  0.00    +0.000 C 
ATOM    221  O4' A   B  30       4.593 -13.430  14.352  0.00  0.00    +0.000 OA
ATOM    222  C3' A   B  30       3.748 -12.366  12.446  0.00  0.00    +0.000 C 
ATOM    223  O3' A   B  30       3.018 -12.521  11.234  0.00  0.00    +0.000 OA
ATOM    224  C2' A   B  30       2.880 -11.959  13.628  0.00  0.00    +0.000 C 
ATOM    225  C1' A   B  30       3.760 -12.380  14.809  0.00  0.00    +0.000 C 
ATOM    226  P   A   B  31       2.914 -11.318  10.210  0.00  0.00    +0.000 P 
ATOM    227  OP1 A   B  31       2.331 -11.848   8.952  0.00  0.00    +0.000 OA
ATOM    228  O5' A   B  31       1.830 -10.367  10.899  0.00  0.00    +0.000 OA
ATOM    229  C5' A   B  31       0.499 -10.818  11.121  0.00  0.00    +0.000 C 
ATOM    230  C4' A   B  31      -0.259  -9.858  12.008  0.00  0.00    +0.000 C 
ATOM    231  O4' A   B  31       0.385  -9.768  13.308  0.00  0.00    +0.000 OA
ATOM    232  C3' A   B  31      -0.316  -8.420  11.526  0.00  0.00    +0.000 C 
ATOM    233  O3' A   B  31      -1.305  -8.219  10.520  0.00  0.00    +0.000 OA
ATOM    234  C2' A   B  31      -0.600  -7.667  12.818  0.00  0.00    +0.000 C 
ATOM    235  C1' A   B  31       0.245  -8.456  13.823  0.00  0.00    +0.000 C 
ATOM    236  P   A   B  32      -1.092  -7.117   9.402  0.00  0.00    +0.000 P 
ATOM    237  OP1 A   B  32      -2.134  -7.321   8.364  0.00  0.00    +0.000 OA
ATOM    238  O5' A   B  32      -1.425  -5.763  10.180  0.00  0.00    +0.000 OA
ATOM    239  C5' A   B  32      -2.722  -5.527  10.716  0.00  0.00    +0.000 C 
ATOM    240  C4' A   B  32      -2.731  -4.292  11.584  0.00  0.00    +0.000 C 
ATOM    241  O4' A   B  32      -1.876  -4.493  12.741  0.00  0.00    +0.000 OA
ATOM    242  C3' A   B  32      -2.188  -3.033  10.934  0.00  0.00    +0.000 C 
ATOM    243  O3' A   B  32      -3.139  -2.395  10.087  0.00  0.00    +0.000 OA
ATOM    244  C2' A   B  32      -1.794  -2.198  12.147  0.00  0.00    +0.000 C 
ATOM    245  C1' A   B  32      -1.248  -3.271  13.090  0.00  0.00    +0.000 C 
ATOM    246  P   U   B  33      -2.685  -1.693   8.739  0.00  0.00    +0.000 P 
ATOM    247  OP1 U   B  33      -3.899  -1.355   7.961  0.00  0.00    +0.000 OA
ATOM    248  O5' U   B  33      -2.027  -0.334   9.260  0.00  0.00    +0.000 OA
ATOM    249  C5' U   B  33      -2.798   0.635   9.960  0.00  0.00    +0.000 C 
ATOM    250  C4' U   B  33      -1.917   1.679  10.601  0.00  0.00    +0.000 C 
ATOM    251  O4' U   B  33      -1.073   1.066  11.610  0.00  0.00    +0.000 OA
ATOM    252  C3' U   B  33      -0.940   2.375   9.674  0.00  0.00    +0.000 C 
ATOM    253  O3' U   B  33      -1.543   3.399   8.895  0.00  0.00    +0.000 OA
ATOM    254  C2' U   B  33       0.105   2.891  10.660  0.00  0.00    +0.000 C 
ATOM    255  C1' U   B  33       0.173   1.739  11.660  0.00  0.00    +0.000 C 
ATOM    256  P   A   B  34      -1.066   3.658   7.396  0.00  0.00    +0.000 P 
ATOM    257  OP2 A   B  34      -0.777   2.355   6.740  0.00  0.00    +0.000 OA
ATOM    258  O5' A   B  34       0.320   4.420   7.609  0.00  0.00    +0.000 OA
ATOM    259  C5' A   B  34       0.353   5.726   8.178  0.00  0.00    +0.000 C 
ATOM    260  C4' A   B  34       1.765   6.145   8.505  0.00  0.00    +0.000 C 
ATOM    261  O4' A   B  34       2.322   5.265   9.516  0.00  0.00    +0.000 OA
ATOM    262  C3' A   B  34       2.763   6.073   7.365  0.00  0.00    +0.000 C 
ATOM    263  O3' A   B  34       2.675   7.166   6.465  0.00  0.00    +0.000 OA
ATOM    264  C2' A   B  34       4.084   6.011   8.122  0.00  0.00    +0.000 C 
ATOM    265  C1' A   B  34       3.714   5.126   9.305  0.00  0.00    +0.000 C 
ATOM    266  P   A   B  35       2.972   6.957   4.913  0.00  0.00    +0.000 P 
ATOM    267  OP1 A   B  35       2.602   8.212   4.211  0.00  0.00    +0.000 OA
ATOM    268  O5' A   B  35       4.561   6.813   4.866  0.00  0.00    +0.000 OA
ATOM    269  C5' A   B  35       5.399   7.934   5.121  0.00  0.00    +0.000 C 
ATOM    270  C4' A   B  35       6.802   7.508   5.474  0.00  0.00    +0.000 C 
ATOM    271  O4' A   B  35       6.766   6.499   6.514  0.00  0.00    +0.000 OA
ATOM    272  C3' A   B  35       7.615   6.858   4.369  0.00  0.00    +0.000 C 
ATOM    273  O3' A   B  35       8.158   7.786   3.444  0.00  0.00    +0.000 OA
ATOM    274  C2' A   B  35       8.678   6.117   5.169  0.00  0.00    +0.000 C 
ATOM    275  C1' A   B  35       7.861   5.615   6.353  0.00  0.00    +0.000 C 
ATOM    276  P   U   B  36       8.365   7.370   1.915  0.00  0.00    +0.000 P 
ATOM    277  OP1 U   B  36       8.932   8.549   1.216  0.00  0.00    +0.000 OA
ATOM    278  O5' U   B  36       9.487   6.236   1.975  0.00  0.00    +0.000 OA
ATOM    279  C5' U   B  36      10.812   6.545   2.395  0.00  0.00    +0.000 C 
ATOM    280  C4' U   B  36      11.656   5.293   2.480  0.00  0.00    +0.000 C 
ATOM    281  O4' U   B  36      11.086   4.365   3.439  0.00  0.00    +0.000 OA
ATOM    282  C3' U   B  36      11.763   4.475   1.209  0.00  0.00    +0.000 C 
ATOM    283  O3' U   B  36      12.684   5.017   0.277  0.00  0.00    +0.000 OA
ATOM    284  C2' U   B  36      12.173   3.105   1.747  0.00  0.00    +0.000 C 
ATOM    285  C1' U   B  36      11.344   3.033   3.029  0.00  0.00    +0.000 C 
ATOM    286  P   A   B  37      12.526   4.670  -1.277  0.00  0.00    +0.000 P 
ATOM    287  OP1 A   B  37      13.323   5.662  -2.041  0.00  0.00    +0.000 OA
ATOM    288  O5' A   B  37      13.248   3.257  -1.400  0.00  0.00    +0.000 OA
ATOM    289  C5' A   B  37      14.648   3.145  -1.165  0.00  0.00    +0.000 C 
ATOM    290  C4' A   B  37      15.132   1.743  -1.445  0.00  0.00    +0.000 C 
ATOM    291  O4' A   B  37      14.610   0.825  -0.452  0.00  0.00    +0.000 OA
ATOM    292  C3' A   B  37      14.691   1.138  -2.765  0.00  0.00    +0.000 C 
ATOM    293  O3' A   B  37      15.454   1.604  -3.868  0.00  0.00    +0.000 OA
ATOM    294  C2' A   B  37      14.860  -0.351  -2.498  0.00  0.00    +0.000 C 
ATOM    295  C1' A   B  37      14.408  -0.447  -1.044  0.00  0.00    +0.000 C 
ATOM    296  P   U   B  38      14.758   1.767  -5.296  0.00  0.00    +0.000 P 
ATOM    297  OP1 U   B  38      15.697   2.504  -6.174  0.00  0.00    +0.000 OA
ATOM    298  O5' U   B  38      14.663   0.264  -5.811  0.00  0.00    +0.000 OA
ATOM    299  C5' U   B  38      15.836  -0.496  -6.057  0.00  0.00    +0.000 C 
ATOM    300  C4' U   B  38      15.515  -1.962  -6.199  0.00  0.00    +0.000 C 
ATOM    301  O4' U   B  38      14.871  -2.450  -4.992  0.00  0.00    +0.000 OA
ATOM    302  C3' U   B  38      14.539  -2.339  -7.295  0.00  0.00    +0.000 C 
ATOM    303  O3' U   B  38      15.120  -2.350  -8.586  0.00  0.00    +0.000 OA
ATOM    304  C2' U   B  38      14.066  -3.714  -6.830  0.00  0.00    +0.000 C 
ATOM    305  C1' U   B  38      13.965  -3.490  -5.324  0.00  0.00    +0.000 C 
ATOM    306  P   U   B  39      14.214  -1.992  -9.864  0.00  0.00    +0.000 P 
ATOM    307  OP1 U   B  39      15.099  -1.893 -11.040  0.00  0.00    +0.000 OA
ATOM    308  O5' U   B  39      13.297  -3.291 -10.022  0.00  0.00    +0.000 OA
ATOM    309  C5' U   B  39      13.867  -4.565 -10.233  0.00  0.00    +0.000 C 
ATOM    310  C4' U   B  39      12.810  -5.646 -10.270  0.00  0.00    +0.000 C 
ATOM    311  O4' U   B  39      12.160  -5.762  -8.986  0.00  0.00    +0.000 OA
ATOM    312  C3' U   B  39      11.653  -5.439 -11.220  0.00  0.00    +0.000 C 
ATOM    313  O3' U   B  39      11.997  -5.689 -12.568  0.00  0.00    +0.000 OA
ATOM    314  C2' U   B  39      10.606  -6.406 -10.661  0.00  0.00    +0.000 C 
ATOM    315  C1' U   B  39      10.890  -6.327  -9.170  0.00  0.00    +0.000 C 
ATOM    316  P   C   B  40      11.242  -4.905 -13.763  0.00  0.00    +0.000 P 
ATOM    317  OP1 C   B  40      11.337  -5.728 -14.997  0.00  0.00    +0.000 OA
ATOM    318  O5' C   B  40       9.708  -4.885 -13.306  0.00  0.00    +0.000 OA
ATOM    319  C5' C   B  40       9.019  -3.684 -13.053  0.00  0.00    +0.000 C 
ATOM    320  C4' C   B  40       7.694  -3.640 -13.776  0.00  0.00    +0.000 C 
ATOM    321  O4' C   B  40       7.926  -3.717 -15.206  0.00  0.00    +0.000 OA
ATOM    322  C3' C   B  40       6.744  -4.782 -13.483  0.00  0.00    +0.000 C 
ATOM    323  O3' C   B  40       5.994  -4.536 -12.301  0.00  0.00    +0.000 OA
ATOM    324  C2' C   B  40       5.860  -4.812 -14.732  0.00  0.00    +0.000 C 
ATOM    325  C1' C   B  40       6.819  -4.332 -15.829  0.00  0.00    +0.000 C 
ATOM    326  P   U   B  41       5.975  -5.586 -11.105  0.00  0.00    +0.000 P 
ATOM    327  OP2 U   B  41       7.361  -6.067 -10.897  0.00  0.00    +0.000 OA
ATOM    328  O5' U   B  41       5.116  -6.803 -11.679  0.00  0.00    +0.000 OA
ATOM    329  C5' U   B  41       3.769  -6.615 -12.076  0.00  0.00    +0.000 C 
ATOM    330  C4' U   B  41       3.032  -7.927 -12.080  0.00  0.00    +0.000 C 
ATOM    331  O4' U   B  41       3.612  -8.809 -13.067  0.00  0.00    +0.000 OA
ATOM    332  C3' U   B  41       3.109  -8.708 -10.781  0.00  0.00    +0.000 C 
ATOM    333  O3' U   B  41       2.132  -8.255  -9.850  0.00  0.00    +0.000 OA
ATOM    334  C2' U   B  41       2.891 -10.145 -11.240  0.00  0.00    +0.000 C 
ATOM    335  C1' U   B  41       3.585 -10.144 -12.599  0.00  0.00    +0.000 C 
ATOM    336  P   U   B  42       2.307  -8.479  -8.284  0.00  0.00    +0.000 P 
ATOM    337  OP2 U   B  42       3.746  -8.397  -7.959  0.00  0.00    +0.000 OA
ATOM    338  O5' U   B  42       1.814  -9.983  -8.115  0.00  0.00    +0.000 OA
ATOM    339  C5' U   B  42       2.070 -10.678  -6.909  0.00  0.00    +0.000 C 
ATOM    340  C4' U   B  42       2.348 -12.136  -7.175  0.00  0.00    +0.000 C 
ATOM    341  O4' U   B  42       3.103 -12.282  -8.408  0.00  0.00    +0.000 OA
ATOM    342  C3' U   B  42       3.209 -12.809  -6.133  0.00  0.00    +0.000 C 
ATOM    343  O3' U   B  42       2.439 -13.220  -4.999  0.00  0.00    +0.000 OA
ATOM    344  C2' U   B  42       3.817 -13.974  -6.906  0.00  0.00    +0.000 C 
ATOM    345  C1' U   B  42       4.003 -13.360  -8.298  0.00  0.00    +0.000 C 
ATOM    346  P   A   B  43       2.583 -12.481  -3.589  0.00  0.00    +0.000 P 
ATOM    347  OP2 A   B  43       2.234 -11.045  -3.733  0.00  0.00    +0.000 OA
ATOM    348  O5' A   B  43       4.143 -12.583  -3.291  0.00  0.00    +0.000 OA
ATOM    349  C5' A   B  43       4.810 -13.845  -3.288  0.00  0.00    +0.000 C 
ATOM    350  C4' A   B  43       6.283 -13.672  -3.555  0.00  0.00    +0.000 C 
ATOM    351  O4' A   B  43       6.480 -12.950  -4.801  0.00  0.00    +0.000 OA
ATOM    352  C3' A   B  43       7.045 -12.849  -2.530  0.00  0.00    +0.000 C 
ATOM    353  O3' A   B  43       7.387 -13.592  -1.369  0.00  0.00    +0.000 OA
ATOM    354  C2' A   B  43       8.251 -12.382  -3.333  0.00  0.00    +0.000 C 
ATOM    355  C1' A   B  43       7.612 -12.103  -4.697  0.00  0.00    +0.000 C 
ATOM    356  P   C   B  44       7.204 -12.950   0.084  0.00  0.00    +0.000 P 
ATOM    357  OP2 C   B  44       5.886 -12.266   0.156  0.00  0.00    +0.000 OA
ATOM    358  O5' C   B  44       8.339 -11.832   0.113  0.00  0.00    +0.000 OA
ATOM    359  C5' C   B  44       9.709 -12.162  -0.086  0.00  0.00    +0.000 C 
ATOM    360  C4' C   B  44      10.521 -10.939  -0.422  0.00  0.00    +0.000 C 
ATOM    361  O4' C   B  44       9.976 -10.292  -1.600  0.00  0.00    +0.000 OA
ATOM    362  C3' C   B  44      10.531  -9.848   0.633  0.00  0.00    +0.000 C 
ATOM    363  O3' C   B  44      11.471 -10.113   1.663  0.00  0.00    +0.000 OA
ATOM    364  C2' C   B  44      10.875  -8.608  -0.187  0.00  0.00    +0.000 C 
ATOM    365  C1' C   B  44      10.133  -8.888  -1.497  0.00  0.00    +0.000 C 
ATOM    366  P   U   B  45      11.435  -9.331   3.055  0.00  0.00    +0.000 P 
ATOM    367  OP2 U   B  45      10.065  -8.819   3.306  0.00  0.00    +0.000 OA
ATOM    368  O5' U   B  45      12.397  -8.086   2.769  0.00  0.00    +0.000 OA
ATOM    369  C5' U   B  45      13.722  -8.280   2.290  0.00  0.00    +0.000 C 
ATOM    370  C4' U   B  45      14.483  -6.983   2.249  0.00  0.00    +0.000 C 
ATOM    371  O4' U   B  45      13.839  -6.050   1.345  0.00  0.00    +0.000 OA
ATOM    372  C3' U   B  45      14.551  -6.229   3.561  0.00  0.00    +0.000 C 
ATOM    373  O3' U   B  45      15.549  -6.746   4.430  0.00  0.00    +0.000 OA
ATOM    374  C2' U   B  45      14.831  -4.800   3.101  0.00  0.00    +0.000 C 
ATOM    375  C1' U   B  45      13.988  -4.725   1.826  0.00  0.00    +0.000 C 
ATOM    376  P   U   B  46      15.296  -6.799   5.998  0.00  0.00    +0.000 P 
ATOM    377  OP2 U   B  46      13.893  -7.224   6.251  0.00  0.00    +0.000 OA
ATOM    378  O5' U   B  46      15.437  -5.273   6.424  0.00  0.00    +0.000 OA
ATOM    379  C5' U   B  46      16.660  -4.569   6.240  0.00  0.00    +0.000 C 
ATOM    380  C4' U   B  46      16.461  -3.085   6.404  0.00  0.00    +0.000 C 
ATOM    381  O4' U   B  46      15.532  -2.591   5.404  0.00  0.00    +0.000 OA
ATOM    382  C3' U   B  46      15.847  -2.639   7.716  0.00  0.00    +0.000 C 
ATOM    383  O3' U   B  46      16.786  -2.607   8.782  0.00  0.00    +0.000 OA
ATOM    384  C2' U   B  46      15.294  -1.267   7.352  0.00  0.00    +0.000 C 
ATOM    385  C1' U   B  46      14.777  -1.518   5.937  0.00  0.00    +0.000 C 
ATOM    386  P   U   B  47      16.298  -2.832  10.275  0.00  0.00    +0.000 P 
ATOM    387  OP2 U   B  47      15.254  -3.890  10.295  0.00  0.00    +0.000 OA
ATOM    388  O5' U   B  47      15.599  -1.443  10.629  0.00  0.00    +0.000 OA
ATOM    389  C5' U   B  47      16.345  -0.233  10.630  0.00  0.00    +0.000 C 
ATOM    390  C4' U   B  47      15.443   0.974  10.735  0.00  0.00    +0.000 C 
ATOM    391  O4' U   B  47      14.532   1.022   9.602  0.00  0.00    +0.000 OA
ATOM    392  C3' U   B  47      14.523   1.016  11.935  0.00  0.00    +0.000 C 
ATOM    393  O3' U   B  47      15.188   1.419  13.123  0.00  0.00    +0.000 OA
ATOM    394  C2' U   B  47      13.457   2.002  11.473  0.00  0.00    +0.000 C 
ATOM    395  C1' U   B  47      13.313   1.628   9.997  0.00  0.00    +0.000 C 
ATOM    396  P   A   B  48      14.654   0.917  14.538  0.00  0.00    +0.000 P 
ATOM    397  OP2 A   B  48      14.192  -0.493  14.415  0.00  0.00    +0.000 OA
ATOM    398  O5' A   B  48      13.376   1.838  14.773  0.00  0.00    +0.000 OA
ATOM    399  C5' A   B  48      13.507   3.249  14.895  0.00  0.00    +0.000 C 
ATOM    400  C4' A   B  48      12.156   3.925  14.901  0.00  0.00    +0.000 C 
ATOM    401  O4' A   B  48      11.489   3.711  13.628  0.00  0.00    +0.000 OA
ATOM    402  C3' A   B  48      11.162   3.401  15.922  0.00  0.00    +0.000 C 
ATOM    403  O3' A   B  48      11.388   3.921  17.225  0.00  0.00    +0.000 OA
ATOM    404  C2' A   B  48       9.834   3.839  15.318  0.00  0.00    +0.000 C 
ATOM    405  C1' A   B  48      10.091   3.619  13.827  0.00  0.00    +0.000 C 
ATOM    406  P   U   B  49      11.055   3.031  18.511  0.00  0.00    +0.000 P 
ATOM    407  OP2 U   B  49      11.398   1.612  18.222  0.00  0.00    +0.000 OA
ATOM    408  O5' U   B  49       9.468   3.141  18.621  0.00  0.00    +0.000 OA
ATOM    409  C5' U   B  49       8.837   4.395  18.852  0.00  0.00    +0.000 C 
ATOM    410  C4' U   B  49       7.348   4.307  18.633  0.00  0.00    +0.000 C 
ATOM    411  O4' U   B  49       7.068   3.965  17.246  0.00  0.00    +0.000 OA
ATOM    412  C3' U   B  49       6.624   3.236  19.422  0.00  0.00    +0.000 C 
ATOM    413  O3' U   B  49       6.380   3.606  20.773  0.00  0.00    +0.000 OA
ATOM    414  C2' U   B  49       5.352   3.054  18.604  0.00  0.00    +0.000 C 
ATOM    415  C1' U   B  49       5.893   3.178  17.176  0.00  0.00    +0.000 C 
ATOM    416  P   U   B  50       6.351   2.472  21.911  0.00  0.00    +0.000 P 
ATOM    417  OP2 U   B  50       7.429   1.485  21.649  0.00  0.00    +0.000 OA
ATOM    418  O5' U   B  50       4.952   1.748  21.660  0.00  0.00    +0.000 OA
ATOM    419  C5' U   B  50       3.725   2.457  21.813  0.00  0.00    +0.000 C 
ATOM    420  C4' U   B  50       2.567   1.675  21.246  0.00  0.00    +0.000 C 
ATOM    421  O4' U   B  50       2.773   1.436  19.826  0.00  0.00    +0.000 OA
ATOM    422  C3' U   B  50       2.356   0.289  21.818  0.00  0.00    +0.000 C 
ATOM    423  O3' U   B  50       1.702   0.302  23.079  0.00  0.00    +0.000 OA
ATOM    424  C2' U   B  50       1.541  -0.379  20.722  0.00  0.00    +0.000 C 
ATOM    425  C1' U   B  50       2.199   0.194  19.465  0.00  0.00    +0.000 C 
ATOM    426  P   U   B  51       1.989  -0.871  24.141  0.00  0.00    +0.000 P 
ATOM    427  OP2 U   B  51       3.440  -1.190  24.132  0.00  0.00    +0.000 OA
ATOM    428  O5' U   B  51       1.210  -2.116  23.520  0.00  0.00    +0.000 OA
ATOM    429  C5' U   B  51      -0.203  -2.093  23.365  0.00  0.00    +0.000 C 
ATOM    430  C4' U   B  51      -0.684  -3.252  22.525  0.00  0.00    +0.000 C 
ATOM    431  O4' U   B  51      -0.079  -3.195  21.203  0.00  0.00    +0.000 OA
ATOM    432  C3' U   B  51      -0.323  -4.633  23.029  0.00  0.00    +0.000 C 
ATOM    433  O3' U   B  51      -1.174  -5.074  24.079  0.00  0.00    +0.000 OA
ATOM    434  C2' U   B  51      -0.440  -5.471  21.764  0.00  0.00    +0.000 C 
ATOM    435  C1' U   B  51       0.114  -4.507  20.710  0.00  0.00    +0.000 C 
ATOM    436  P   U   B  52      -0.621  -6.107  25.179  0.00  0.00    +0.000 P 
ATOM    437  OP2 U   B  52       0.776  -5.739  25.523  0.00  0.00    +0.000 OA
ATOM    438  O5' U   B  52      -0.591  -7.494  24.395  0.00  0.00    +0.000 OA
ATOM    439  C5' U   B  52      -1.785  -8.085  23.902  0.00  0.00    +0.000 C 
ATOM    440  C4' U   B  52      -1.486  -9.239  22.976  0.00  0.00    +0.000 C 
ATOM    441  O4' U   B  52      -0.721  -8.774  21.827  0.00  0.00    +0.000 OA
ATOM    442  C3' U   B  52      -0.630 -10.347  23.555  0.00  0.00    +0.000 C 
ATOM    443  O3' U   B  52      -1.371 -11.234  24.383  0.00  0.00    +0.000 OA
ATOM    444  C2' U   B  52      -0.078 -11.008  22.298  0.00  0.00    +0.000 C 
ATOM    445  C1' U   B  52       0.165  -9.792  21.400  0.00  0.00    +0.000 C 
ATOM    446  P   A   B  53      -0.646 -12.000  25.582  0.00  0.00    +0.000 P 
ATOM    447  OP2 A   B  53       0.316 -11.070  26.235  0.00  0.00    +0.000 OA
ATOM    448  O5' A   B  53       0.194 -13.129  24.833  0.00  0.00    +0.000 OA
ATOM    449  C5' A   B  53      -0.461 -14.151  24.091  0.00  0.00    +0.000 C 
ATOM    450  C4' A   B  53       0.532 -14.959  23.290  0.00  0.00    +0.000 C 
ATOM    451  O4' A   B  53       1.197 -14.105  22.318  0.00  0.00    +0.000 OA
ATOM    452  C3' A   B  53       1.674 -15.568  24.081  0.00  0.00    +0.000 C 
ATOM    453  O3' A   B  53       1.295 -16.761  24.752  0.00  0.00    +0.000 OA
ATOM    454  C2' A   B  53       2.725 -15.786  23.000  0.00  0.00    +0.000 C 
ATOM    455  C1' A   B  53       2.530 -14.537  22.137  0.00  0.00    +0.000 C 
ATOM    456  P   A   B  54       1.996 -17.167  26.127  0.00  0.00    +0.000 P 
ATOM    457  OP1 A   B  54       1.226 -18.289  26.713  0.00  0.00    +0.000 OA
ATOM    458  O5' A   B  54       3.409 -17.723  25.650  0.00  0.00    +0.000 OA
ATOM    459  C5' A   B  54       3.497 -18.878  24.821  0.00  0.00    +0.000 C 
ATOM    460  C4' A   B  54       4.900 -19.060  24.295  0.00  0.00    +0.000 C 
ATOM    461  O4' A   B  54       5.265 -17.930  23.456  0.00  0.00    +0.000 OA
ATOM    462  C3' A   B  54       5.994 -19.103  25.343  0.00  0.00    +0.000 C 
ATOM    463  O3' A   B  54       6.098 -20.371  25.973  0.00  0.00    +0.000 OA
ATOM    464  C2' A   B  54       7.223 -18.725  24.529  0.00  0.00    +0.000 C 
ATOM    465  C1' A   B  54       6.646 -17.655  23.596  0.00  0.00    +0.000 C 
ATOM    466  P   A   B  55       6.571 -20.476  27.492  0.00  0.00    +0.000 P 
ATOM    467  OP1 A   B  55       6.360 -21.873  27.944  0.00  0.00    +0.000 OA
ATOM    468  O5' A   B  55       8.137 -20.216  27.385  0.00  0.00    +0.000 OA
ATOM    469  C5' A   B  55       8.973 -21.101  26.644  0.00  0.00    +0.000 C 
ATOM    470  C4' A   B  55      10.351 -20.517  26.462  0.00  0.00    +0.000 C 
ATOM    471  O4' A   B  55      10.274 -19.292  25.686  0.00  0.00    +0.000 OA
ATOM    472  C3' A   B  55      11.063 -20.097  27.733  0.00  0.00    +0.000 C 
ATOM    473  O3' A   B  55      11.639 -21.192  28.428  0.00  0.00    +0.000 OA
ATOM    474  C2' A   B  55      12.084 -19.103  27.205  0.00  0.00    +0.000 C 
ATOM    475  C1' A   B  55      11.270 -18.386  26.123  0.00  0.00    +0.000 C 
ATOM    476  P   A   B  56      11.739 -21.176  30.017  0.00  0.00    +0.000 P 
ATOM    477  OP1 A   B  56      12.177 -22.520  30.467  0.00  0.00    +0.000 OA
ATOM    478  O5' A   B  56      12.933 -20.155  30.273  0.00  0.00    +0.000 OA
ATOM    479  C5' A   B  56      14.240 -20.430  29.781  0.00  0.00    +0.000 C 
ATOM    480  C4' A   B  56      15.139 -19.226  29.921  0.00  0.00    +0.000 C 
ATOM    481  O4' A   B  56      14.641 -18.134  29.104  0.00  0.00    +0.000 OA
ATOM    482  C3' A   B  56      15.227 -18.626  31.308  0.00  0.00    +0.000 C 
ATOM    483  O3' A   B  56      16.081 -19.358  32.172  0.00  0.00    +0.000 OA
ATOM    484  C2' A   B  56      15.719 -17.217  31.005  0.00  0.00    +0.000 C 
ATOM    485  C1' A   B  56      14.937 -16.899  29.730  0.00  0.00    +0.000 C 
ATOM    486  P   A   B  57      15.812 -19.372  33.733  0.00  0.00    +0.000 P 
ATOM    487  OP2 A   B  57      14.344 -19.345  33.989  0.00  0.00    +0.000 OA
ATOM    488  O5' A   B  57      16.410 -17.968  34.177  0.00  0.00    +0.000 OA
ATOM    489  C5' A   B  57      17.787 -17.674  33.977  0.00  0.00    +0.000 C 
ATOM    490  C4' A   B  57      18.088 -16.236  34.302  0.00  0.00    +0.000 C 
ATOM    491  O4' A   B  57      17.427 -15.358  33.352  0.00  0.00    +0.000 OA
ATOM    492  C3' A   B  57      17.592 -15.743  35.648  0.00  0.00    +0.000 C 
ATOM    493  O3' A   B  57      18.417 -16.156  36.725  0.00  0.00    +0.000 OA
ATOM    494  C2' A   B  57      17.572 -14.236  35.432  0.00  0.00    +0.000 C 
ATOM    495  C1' A   B  57      17.063 -14.151  33.994  0.00  0.00    +0.000 C 
ATOM    496  P   C   B  58      17.765 -16.388  38.167  0.00  0.00    +0.000 P 
ATOM    497  OP2 C   B  58      16.355 -16.835  38.015  0.00  0.00    +0.000 OA
ATOM    498  O5' C   B  58      17.749 -14.911  38.763  0.00  0.00    +0.000 OA
ATOM    499  C5' C   B  58      18.960 -14.206  38.980  0.00  0.00    +0.000 C 
ATOM    500  C4' C   B  58      18.714 -12.728  39.141  0.00  0.00    +0.000 C 
ATOM    501  O4' C   B  58      18.048 -12.198  37.965  0.00  0.00    +0.000 OA
ATOM    502  C3' C   B  58      17.801 -12.315  40.274  0.00  0.00    +0.000 C 
ATOM    503  O3' C   B  58      18.435 -12.353  41.543  0.00  0.00    +0.000 OA
ATOM    504  C2' C   B  58      17.402 -10.909  39.840  0.00  0.00    +0.000 C 
ATOM    505  C1' C   B  58      17.223 -11.107  38.336  0.00  0.00    +0.000 C 
ATOM    506  P   A   B  59      17.561 -12.647  42.845  0.00  0.00    +0.000 P 
ATOM    507  OP2 A   B  59      16.602 -13.748  42.554  0.00  0.00    +0.000 OA
ATOM    508  O5' A   B  59      16.725 -11.303  43.008  0.00  0.00    +0.000 OA
ATOM    509  C5' A   B  59      17.379 -10.066  43.234  0.00  0.00    +0.000 C 
ATOM    510  C4' A   B  59      16.425  -8.907  43.086  0.00  0.00    +0.000 C 
ATOM    511  O4' A   B  59      15.879  -8.882  41.740  0.00  0.00    +0.000 OA
ATOM    512  C3' A   B  59      15.191  -8.941  43.971  0.00  0.00    +0.000 C 
ATOM    513  O3' A   B  59      15.465  -8.516  45.295  0.00  0.00    +0.000 OA
ATOM    514  C2' A   B  59      14.243  -8.016  43.218  0.00  0.00    +0.000 C 
ATOM    515  C1' A   B  59      14.557  -8.378  41.765  0.00  0.00    +0.000 C 
ATOM    516  P   G   B  60      14.680  -9.171  46.529  0.00  0.00    +0.000 P 
ATOM    517  OP2 G   B  60      14.536 -10.634  46.297  0.00  0.00    +0.000 OA
ATOM    518  O5' G   B  60      13.239  -8.503  46.413  0.00  0.00    +0.000 OA
ATOM    519  C5' G   B  60      13.081  -7.099  46.537  0.00  0.00    +0.000 C 
ATOM    520  C4' G   B  60      11.676  -6.673  46.182  0.00  0.00    +0.000 C 
ATOM    521  O4' G   B  60      11.414  -6.975  44.789  0.00  0.00    +0.000 OA
ATOM    522  C3' G   B  60      10.560  -7.383  46.921  0.00  0.00    +0.000 C 
ATOM    523  O3' G   B  60      10.341  -6.836  48.215  0.00  0.00    +0.000 OA
ATOM    524  C2' G   B  60       9.378  -7.177  45.983  0.00  0.00    +0.000 C 
ATOM    525  C1' G   B  60      10.045  -7.265  44.612  0.00  0.00    +0.000 C 
ATOM    526  P   A   B  61      10.276  -7.759  49.521  0.00  0.00    +0.000 P 
ATOM    527  OP1 A   B  61      10.308  -9.181  49.111  0.00  0.00    +0.000 OA
ATOM    528  O5' A   B  61      11.626  -7.407  50.289  0.00  0.00    +0.000 OA
ATOM    529  C5' A   B  61      12.697  -8.335  50.330  0.00  0.00    +0.000 C 
ATOM    530  C4' A   B  61      14.006  -7.635  50.570  0.00  0.00    +0.000 C 
ATOM    531  O4' A   B  61      14.317  -6.774  49.437  0.00  0.00    +0.000 OA
ATOM    532  C3' A   B  61      14.050  -6.692  51.758  0.00  0.00    +0.000 C 
ATOM    533  C2' A   B  61      15.211  -5.773  51.392  0.00  0.00    +0.000 C 
ATOM    534  C1' A   B  61      15.011  -5.625  49.883  0.00  0.00    +0.000 C 
ATOM    535  N9  A   B  61      14.226  -4.429  49.534  0.00  0.00    +0.000 N 
ATOM    536  C8  A   B  61      12.921  -4.369  49.126  0.00  0.00    +0.000 A 
ATOM    537  N7  A   B  61      12.497  -3.146  48.879  0.00  0.00    +0.000 NA
ATOM    538  C5  A   B  61      13.605  -2.348  49.148  0.00  0.00    +0.000 A 
ATOM    539  C6  A   B  61      13.805  -0.959  49.080  0.00  0.00    +0.000 A 
ATOM    540  N6  A   B  61      12.858  -0.087  48.710  0.00  0.00    +0.000 N 
ATOM    541  N1  A   B  61      15.023  -0.486  49.411  0.00  0.00    +0.000 NA
ATOM    542  C2  A   B  61      15.969  -1.363  49.783  0.00  0.00    +0.000 A 
ATOM    543  N3  A   B  61      15.901  -2.685  49.884  0.00  0.00    +0.000 NA
ATOM    544  C4  A   B  61      14.674  -3.123  49.547  0.00  0.00    +0.000 A 
ENDROOT
BRANCH 105 545
ATOM    545  N9  G   B  18       8.774 -23.460  47.725  0.00  0.00    +0.000 N 
ATOM    546  C8  G   B  18       9.595 -22.510  48.289  0.00  0.00    +0.000 A 
ATOM    547  N7  G   B  18       8.939 -21.484  48.762  0.00  0.00    +0.000 NA
ATOM    548  C5  G   B  18       7.604 -21.778  48.498  0.00  0.00    +0.000 A 
ATOM    549  C6  G   B  18       6.427 -21.041  48.786  0.00  0.00    +0.000 A 
ATOM    550  O6  G   B  18       6.323 -19.939  49.345  0.00  0.00    +0.000 OA
ATOM    551  N1  G   B  18       5.281 -21.700  48.346  0.00  0.00    +0.000 NA
ATOM    552  C2  G   B  18       5.276 -22.919  47.713  0.00  0.00    +0.000 A 
ATOM    553  N2  G   B  18       4.075 -23.401  47.361  0.00  0.00    +0.000 N 
ATOM    554  N3  G   B  18       6.364 -23.620  47.440  0.00  0.00    +0.000 N 
ATOM    555  C4  G   B  18       7.486 -22.994  47.862  0.00  0.00    +0.000 A 
ATOM    556  H   G   B  18       4.008 -24.271  46.904  0.00  0.00    +0.000 HD
ATOM    557  H   G   B  18       3.260 -22.885  47.559  0.00  0.00    +0.000 HD
ATOM    558  H   G   B  18       6.358 -24.493  46.984  0.00  0.00    +0.000 HD
ENDBRANCH 105 545
BRANCH 525 559
ATOM    559  N9  G   B  60       9.907  -8.594  44.001  0.00  0.00    +0.000 N 
ATOM    560  C8  G   B  60      10.770  -9.655  44.086  0.00  0.00    +0.000 A 
ATOM    561  N7  G   B  60      10.358 -10.704  43.427  0.00  0.00    +0.000 NA
ATOM    562  C5  G   B  60       9.146 -10.308  42.875  0.00  0.00    +0.000 A 
ATOM    563  C6  G   B  60       8.229 -11.016  42.059  0.00  0.00    +0.000 A 
ATOM    564  O6  G   B  60       8.307 -12.185  41.643  0.00  0.00    +0.000 OA
ATOM    565  N1  G   B  60       7.128 -10.235  41.724  0.00  0.00    +0.000 NA
ATOM    566  C2  G   B  60       6.934  -8.936  42.121  0.00  0.00    +0.000 A 
ATOM    567  N2  G   B  60       5.810  -8.342  41.697  0.00  0.00    +0.000 N 
ATOM    568  N3  G   B  60       7.776  -8.265  42.881  0.00  0.00    +0.000 N 
ATOM    569  C4  G   B  60       8.856  -9.010  43.219  0.00  0.00    +0.000 A 
ATOM    570  H   G   B  60       5.176  -8.837  41.129  0.00  0.00    +0.000 HD
ATOM    571  H   G   B  60       5.618  -7.411  41.954  0.00  0.00    +0.000 HD
ATOM    572  H   G   B  60       7.637  -7.334  43.169  0.00  0.00    +0.000 HD
ENDBRANCH 525 559
BRANCH  65 573
ATOM    573  N9  A   B  14       3.103 -23.438  51.049  0.00  0.00    +0.000 N 
ATOM    574  C8  A   B  14       2.250 -22.483  51.536  0.00  0.00    +0.000 A 
ATOM    575  N7  A   B  14       2.860 -21.424  52.015  0.00  0.00    +0.000 NA
ATOM    576  C5  A   B  14       4.209 -21.704  51.829  0.00  0.00    +0.000 A 
ATOM    577  C6  A   B  14       5.377 -20.980  52.124  0.00  0.00    +0.000 A 
ATOM    578  N6  A   B  14       5.375 -19.769  52.702  0.00  0.00    +0.000 N 
ATOM    579  N1  A   B  14       6.562 -21.540  51.814  0.00  0.00    +0.000 NA
ATOM    580  C2  A   B  14       6.564 -22.751  51.240  0.00  0.00    +0.000 A 
ATOM    581  N3  A   B  14       5.537 -23.527  50.911  0.00  0.00    +0.000 NA
ATOM    582  C4  A   B  14       4.372 -22.937  51.237  0.00  0.00    +0.000 A 
ATOM    583  H   A   B  14       6.226 -19.309  52.885  0.00  0.00    +0.000 HD
ATOM    584  H   A   B  14       4.522 -19.340  52.943  0.00  0.00    +0.000 HD
ENDBRANCH  65 573
BRANCH 115 585
ATOM    585  N9  A   B  19       5.038 -22.167  44.194  0.00  0.00    +0.000 N 
ATOM    586  C8  A   B  19       6.290 -21.763  44.588  0.00  0.00    +0.000 A 
ATOM    587  N7  A   B  19       6.294 -20.633  45.258  0.00  0.00    +0.000 NA
ATOM    588  C5  A   B  19       4.954 -20.268  45.308  0.00  0.00    +0.000 A 
ATOM    589  C6  A   B  19       4.292 -19.169  45.880  0.00  0.00    +0.000 A 
ATOM    590  N6  A   B  19       4.920 -18.187  46.539  0.00  0.00    +0.000 N 
ATOM    591  N1  A   B  19       2.950 -19.105  45.752  0.00  0.00    +0.000 NA
ATOM    592  C2  A   B  19       2.320 -20.089  45.091  0.00  0.00    +0.000 A 
ATOM    593  N3  A   B  19       2.830 -21.174  44.509  0.00  0.00    +0.000 NA
ATOM    594  C4  A   B  19       4.169 -21.205  44.655  0.00  0.00    +0.000 A 
ATOM    595  H   A   B  19       5.898 -18.213  46.645  0.00  0.00    +0.000 HD
ATOM    596  H   A   B  19       4.403 -17.439  46.918  0.00  0.00    +0.000 HD
ENDBRANCH 115 585
BRANCH 125 597
ATOM    597  N9  A   B  20       2.497 -19.260  41.442  0.00  0.00    +0.000 N 
ATOM    598  C8  A   B  20       3.851 -19.476  41.496  0.00  0.00    +0.000 A 
ATOM    599  N7  A   B  20       4.493 -18.612  42.248  0.00  0.00    +0.000 NA
ATOM    600  C5  A   B  20       3.494 -17.768  42.716  0.00  0.00    +0.000 A 
ATOM    601  C6  A   B  20       3.520 -16.647  43.561  0.00  0.00    +0.000 A 
ATOM    602  N6  A   B  20       4.642 -16.155  44.106  0.00  0.00    +0.000 N 
ATOM    603  N1  A   B  20       2.349 -16.034  43.831  0.00  0.00    +0.000 NA
ATOM    604  C2  A   B  20       1.228 -16.523  43.283  0.00  0.00    +0.000 A 
ATOM    605  N3  A   B  20       1.074 -17.572  42.475  0.00  0.00    +0.000 NA
ATOM    606  C4  A   B  20       2.260 -18.157  42.227  0.00  0.00    +0.000 A 
ATOM    607  H   A   B  20       5.508 -16.586  43.923  0.00  0.00    +0.000 HD
ATOM    608  H   A   B  20       4.600 -15.363  44.689  0.00  0.00    +0.000 HD
ENDBRANCH 125 597
BRANCH 135 609
ATOM    609  N9  A   B  21       1.500 -15.123  39.834  0.00  0.00    +0.000 N 
ATOM    610  C8  A   B  21       2.531 -15.956  39.478  0.00  0.00    +0.000 A 
ATOM    611  N7  A   B  21       3.672 -15.664  40.060  0.00  0.00    +0.000 NA
ATOM    612  C5  A   B  21       3.369 -14.564  40.850  0.00  0.00    +0.000 A 
ATOM    613  C6  A   B  21       4.148 -13.778  41.717  0.00  0.00    +0.000 A 
ATOM    614  N6  A   B  21       5.454 -13.991  41.940  0.00  0.00    +0.000 N 
ATOM    615  N1  A   B  21       3.541 -12.753  42.352  0.00  0.00    +0.000 NA
ATOM    616  C2  A   B  21       2.238 -12.540  42.125  0.00  0.00    +0.000 A 
ATOM    617  N3  A   B  21       1.401 -13.210  41.336  0.00  0.00    +0.000 NA
ATOM    618  C4  A   B  21       2.037 -14.220  40.718  0.00  0.00    +0.000 A 
ATOM    619  H   A   B  21       5.916 -14.733  41.487  0.00  0.00    +0.000 HD
ATOM    620  H   A   B  21       5.950 -13.405  42.556  0.00  0.00    +0.000 HD
ENDBRANCH 135 609
BRANCH 215 621
ATOM    621  N9  A   B  29       8.389 -13.122  17.351  0.00  0.00    +0.000 N 
ATOM    622  C8  A   B  29       9.480 -12.297  17.454  0.00  0.00    +0.000 A 
ATOM    623  N7  A   B  29       9.243 -11.189  18.118  0.00  0.00    +0.000 NA
ATOM    624  C5  A   B  29       7.905 -11.291  18.474  0.00  0.00    +0.000 A 
ATOM    625  C6  A   B  29       7.045 -10.441  19.190  0.00  0.00    +0.000 A 
ATOM    626  N6  A   B  29       7.426  -9.261  19.700  0.00  0.00    +0.000 N 
ATOM    627  N1  A   B  29       5.769 -10.840  19.367  0.00  0.00    +0.000 NA
ATOM    628  C2  A   B  29       5.386 -12.014  18.855  0.00  0.00    +0.000 A 
ATOM    629  N3  A   B  29       6.099 -12.905  18.166  0.00  0.00    +0.000 NA
ATOM    630  C4  A   B  29       7.366 -12.475  18.006  0.00  0.00    +0.000 A 
ATOM    631  H   A   B  29       8.353  -8.950  19.583  0.00  0.00    +0.000 HD
ATOM    632  H   A   B  29       6.779  -8.705  20.192  0.00  0.00    +0.000 HD
ENDBRANCH 215 621
BRANCH 225 633
ATOM    633  N9  A   B  30       4.610 -11.279  15.294  0.00  0.00    +0.000 N 
ATOM    634  C8  A   B  30       5.937 -11.050  15.031  0.00  0.00    +0.000 A 
ATOM    635  N7  A   B  30       6.411  -9.973  15.617  0.00  0.00    +0.000 NA
ATOM    636  C5  A   B  30       5.323  -9.459  16.309  0.00  0.00    +0.000 A 
ATOM    637  C6  A   B  30       5.165  -8.329  17.131  0.00  0.00    +0.000 A 
ATOM    638  N6  A   B  30       6.156  -7.471  17.404  0.00  0.00    +0.000 N 
ATOM    639  N1  A   B  30       3.947  -8.102  17.666  0.00  0.00    +0.000 NA
ATOM    640  C2  A   B  30       2.955  -8.958  17.390  0.00  0.00    +0.000 A 
ATOM    641  N3  A   B  30       2.979 -10.059  16.635  0.00  0.00    +0.000 NA
ATOM    642  C4  A   B  30       4.206 -10.254  16.117  0.00  0.00    +0.000 A 
ATOM    643  H   A   B  30       7.052  -7.617  17.024  0.00  0.00    +0.000 HD
ATOM    644  H   A   B  30       5.988  -6.694  17.984  0.00  0.00    +0.000 HD
ENDBRANCH 225 633
BRANCH 235 645
ATOM    645  N9  A   B  31       1.586  -7.878  14.009  0.00  0.00    +0.000 N 
ATOM    646  C8  A   B  31       2.769  -8.284  13.443  0.00  0.00    +0.000 A 
ATOM    647  N7  A   B  31       3.802  -7.561  13.810  0.00  0.00    +0.000 NA
ATOM    648  C5  A   B  31       3.263  -6.616  14.671  0.00  0.00    +0.000 A 
ATOM    649  C6  A   B  31       3.836  -5.557  15.400  0.00  0.00    +0.000 A 
ATOM    650  N6  A   B  31       5.142  -5.261  15.371  0.00  0.00    +0.000 N 
ATOM    651  N1  A   B  31       3.019  -4.803  16.164  0.00  0.00    +0.000 NA
ATOM    652  C2  A   B  31       1.712  -5.098  16.193  0.00  0.00    +0.000 A 
ATOM    653  N3  A   B  31       1.054  -6.070  15.556  0.00  0.00    +0.000 NA
ATOM    654  C4  A   B  31       1.899  -6.799  14.802  0.00  0.00    +0.000 A 
ATOM    655  H   A   B  31       5.756  -5.798  14.820  0.00  0.00    +0.000 HD
ATOM    656  H   A   B  31       5.488  -4.506  15.900  0.00  0.00    +0.000 HD
ENDBRANCH 235 645
BRANCH 245 657
ATOM    657  N9  A   B  32       0.207  -3.444  12.963  0.00  0.00    +0.000 N 
ATOM    658  C8  A   B  32       0.890  -4.386  12.235  0.00  0.00    +0.000 A 
ATOM    659  N7  A   B  32       2.193  -4.283  12.325  0.00  0.00    +0.000 NA
ATOM    660  C5  A   B  32       2.385  -3.196  13.166  0.00  0.00    +0.000 A 
ATOM    661  C6  A   B  32       3.547  -2.571  13.659  0.00  0.00    +0.000 A 
ATOM    662  N6  A   B  32       4.789  -2.971  13.358  0.00  0.00    +0.000 N 
ATOM    663  N1  A   B  32       3.389  -1.509  14.478  0.00  0.00    +0.000 NA
ATOM    664  C2  A   B  32       2.147  -1.109  14.779  0.00  0.00    +0.000 A 
ATOM    665  N3  A   B  32       0.979  -1.616  14.382  0.00  0.00    +0.000 NA
ATOM    666  C4  A   B  32       1.171  -2.669  13.566  0.00  0.00    +0.000 A 
ATOM    667  H   A   B  32       4.927  -3.743  12.763  0.00  0.00    +0.000 HD
ATOM    668  H   A   B  32       5.564  -2.493  13.732  0.00  0.00    +0.000 HD
ENDBRANCH 245 657
BRANCH 485 669
ATOM    669  N9  A   B  56      13.676 -16.198  30.019  0.00  0.00    +0.000 N 
ATOM    670  C8  A   B  56      12.410 -16.717  30.103  0.00  0.00    +0.000 A 
ATOM    671  N7  A   B  56      11.490 -15.823  30.384  0.00  0.00    +0.000 NA
ATOM    672  C5  A   B  56      12.200 -14.636  30.492  0.00  0.00    +0.000 A 
ATOM    673  C6  A   B  56      11.806 -13.318  30.775  0.00  0.00    +0.000 A 
ATOM    674  N6  A   B  56      10.533 -12.961  31.017  0.00  0.00    +0.000 N 
ATOM    675  N1  A   B  56      12.761 -12.369  30.811  0.00  0.00    +0.000 NA
ATOM    676  C2  A   B  56      14.029 -12.724  30.577  0.00  0.00    +0.000 A 
ATOM    677  N3  A   B  56      14.525 -13.929  30.297  0.00  0.00    +0.000 NA
ATOM    678  C4  A   B  56      13.544 -14.852  30.271  0.00  0.00    +0.000 A 
ATOM    679  H   A   B  56       9.819 -13.639  30.996  0.00  0.00    +0.000 HD
ATOM    680  H   A   B  56      10.314 -12.022  31.216  0.00  0.00    +0.000 HD
ENDBRANCH 485 669
BRANCH 475 681
ATOM    681  N9  A   B  55      10.617 -17.173  26.636  0.00  0.00    +0.000 N 
ATOM    682  C8  A   B  55       9.318 -17.013  27.044  0.00  0.00    +0.000 A 
ATOM    683  N7  A   B  55       9.042 -15.798  27.455  0.00  0.00    +0.000 NA
ATOM    684  C5  A   B  55      10.239 -15.113  27.311  0.00  0.00    +0.000 A 
ATOM    685  C6  A   B  55      10.611 -13.784  27.573  0.00  0.00    +0.000 A 
ATOM    686  N6  A   B  55       9.765 -12.865  28.066  0.00  0.00    +0.000 N 
ATOM    687  N1  A   B  55      11.885 -13.424  27.322  0.00  0.00    +0.000 NA
ATOM    688  C2  A   B  55      12.727 -14.343  26.835  0.00  0.00    +0.000 A 
ATOM    689  N3  A   B  55      12.497 -15.623  26.543  0.00  0.00    +0.000 NA
ATOM    690  C4  A   B  55      11.219 -15.949  26.809  0.00  0.00    +0.000 A 
ATOM    691  H   A   B  55       8.830 -13.108  28.256  0.00  0.00    +0.000 HD
ATOM    692  H   A   B  55      10.080 -11.948  28.237  0.00  0.00    +0.000 HD
ENDBRANCH 475 681
BRANCH 465 693
ATOM    693  N9  A   B  54       6.801 -16.300  24.143  0.00  0.00    +0.000 N 
ATOM    694  C8  A   B  54       5.875 -15.544  24.814  0.00  0.00    +0.000 A 
ATOM    695  N7  A   B  54       6.321 -14.364  25.177  0.00  0.00    +0.000 NA
ATOM    696  C5  A   B  54       7.631 -14.342  24.716  0.00  0.00    +0.000 A 
ATOM    697  C6  A   B  54       8.644 -13.373  24.782  0.00  0.00    +0.000 A 
ATOM    698  N6  A   B  54       8.486 -12.178  25.372  0.00  0.00    +0.000 N 
ATOM    699  N1  A   B  54       9.835 -13.669  24.227  0.00  0.00    +0.000 NA
ATOM    700  C2  A   B  54       9.993 -14.861  23.642  0.00  0.00    +0.000 A 
ATOM    701  N3  A   B  54       9.115 -15.857  23.513  0.00  0.00    +0.000 NA
ATOM    702  C4  A   B  54       7.939 -15.530  24.078  0.00  0.00    +0.000 A 
ATOM    703  H   A   B  54       9.231 -11.535  25.389  0.00  0.00    +0.000 HD
ATOM    704  H   A   B  54       7.625 -11.944  25.788  0.00  0.00    +0.000 HD
ENDBRANCH 465 693
BRANCH 295 705
ATOM    705  N9  A   B  37      12.987  -0.805  -0.928  0.00  0.00    +0.000 N 
ATOM    706  C8  A   B  37      11.923   0.013  -0.662  0.00  0.00    +0.000 A 
ATOM    707  N7  A   B  37      10.769  -0.613  -0.625  0.00  0.00    +0.000 NA
ATOM    708  C5  A   B  37      11.098  -1.935  -0.891  0.00  0.00    +0.000 A 
ATOM    709  C6  A   B  37      10.325  -3.104  -0.993  0.00  0.00    +0.000 A 
ATOM    710  N6  A   B  37       8.990  -3.129  -0.835  0.00  0.00    +0.000 N 
ATOM    711  N1  A   B  37      10.964  -4.257  -1.265  0.00  0.00    +0.000 NA
ATOM    712  C2  A   B  37      12.292  -4.232  -1.423  0.00  0.00    +0.000 A 
ATOM    713  N3  A   B  37      13.131  -3.199  -1.349  0.00  0.00    +0.000 NA
ATOM    714  C4  A   B  37      12.460  -2.067  -1.078  0.00  0.00    +0.000 A 
ATOM    715  H   A   B  37       8.500  -3.979  -0.918  0.00  0.00    +0.000 HD
ATOM    716  H   A   B  37       8.502  -2.297  -0.636  0.00  0.00    +0.000 HD
ENDBRANCH 295 705
BRANCH 455 717
ATOM    717  N9  A   B  53       3.432 -13.442  22.522  0.00  0.00    +0.000 N 
ATOM    718  C8  A   B  53       3.152 -12.336  23.283  0.00  0.00    +0.000 A 
ATOM    719  N7  A   B  53       4.177 -11.531  23.447  0.00  0.00    +0.000 NA
ATOM    720  C5  A   B  53       5.203 -12.150  22.747  0.00  0.00    +0.000 A 
ATOM    721  C6  A   B  53       6.548 -11.805  22.532  0.00  0.00    +0.000 A 
ATOM    722  N6  A   B  53       7.115 -10.693  23.027  0.00  0.00    +0.000 N 
ATOM    723  N1  A   B  53       7.302 -12.639  21.792  0.00  0.00    +0.000 NA
ATOM    724  C2  A   B  53       6.739 -13.750  21.301  0.00  0.00    +0.000 A 
ATOM    725  N3  A   B  53       5.482 -14.184  21.430  0.00  0.00    +0.000 NA
ATOM    726  C4  A   B  53       4.759 -13.327  22.174  0.00  0.00    +0.000 A 
ATOM    727  H   A   B  53       8.063 -10.501  22.845  0.00  0.00    +0.000 HD
ATOM    728  H   A   B  53       6.583 -10.070  23.572  0.00  0.00    +0.000 HD
ENDBRANCH 455 717
BRANCH  95 729
ATOM    729  N1  C   B  17      11.160 -29.112  47.977  0.00  0.00    +0.000 N 
ATOM    730  C2  C   B  17      10.446 -29.458  46.825  0.00  0.00    +0.000 A 
ATOM    731  O2  C   B  17      11.070 -29.755  45.794  0.00  0.00    +0.000 OA
ATOM    732  N3  C   B  17       9.087 -29.462  46.866  0.00  0.00    +0.000 NA
ATOM    733  C4  C   B  17       8.445 -29.140  47.990  0.00  0.00    +0.000 A 
ATOM    734  N4  C   B  17       7.110 -29.157  47.981  0.00  0.00    +0.000 N 
ATOM    735  C5  C   B  17       9.148 -28.785  49.175  0.00  0.00    +0.000 A 
ATOM    736  C6  C   B  17      10.491 -28.786  49.125  0.00  0.00    +0.000 A 
ATOM    737  H   C   B  17       6.626 -29.403  47.160  0.00  0.00    +0.000 HD
ATOM    738  H   C   B  17       6.609 -28.923  48.796  0.00  0.00    +0.000 HD
ENDBRANCH  95 729
BRANCH 365 739
ATOM    739  N1  C   B  44       8.799  -8.256  -1.559  0.00  0.00    +0.000 N 
ATOM    740  C2  C   B  44       8.718  -6.884  -1.820  0.00  0.00    +0.000 A 
ATOM    741  O2  C   B  44       9.760  -6.239  -1.991  0.00  0.00    +0.000 OA
ATOM    742  N3  C   B  44       7.498  -6.291  -1.882  0.00  0.00    +0.000 NA
ATOM    743  C4  C   B  44       6.393  -7.016  -1.694  0.00  0.00    +0.000 A 
ATOM    744  N4  C   B  44       5.217  -6.385  -1.764  0.00  0.00    +0.000 N 
ATOM    745  C5  C   B  44       6.448  -8.413  -1.426  0.00  0.00    +0.000 A 
ATOM    746  C6  C   B  44       7.659  -8.988  -1.368  0.00  0.00    +0.000 A 
ATOM    747  H   C   B  44       5.187  -5.419  -1.950  0.00  0.00    +0.000 HD
ATOM    748  H   C   B  44       4.381  -6.887  -1.630  0.00  0.00    +0.000 HD
ENDBRANCH 365 739
BRANCH  55 749
ATOM    749  N1  C   B  13       0.442 -20.389  48.887  0.00  0.00    +0.000 N 
ATOM    750  C2  C   B  13       1.675 -20.896  48.459  0.00  0.00    +0.000 A 
ATOM    751  O2  C   B  13       1.706 -21.922  47.769  0.00  0.00    +0.000 OA
ATOM    752  N3  C   B  13       2.816 -20.250  48.815  0.00  0.00    +0.000 NA
ATOM    753  C4  C   B  13       2.757 -19.147  49.561  0.00  0.00    +0.000 A 
ATOM    754  N4  C   B  13       3.902 -18.547  49.887  0.00  0.00    +0.000 N 
ATOM    755  C5  C   B  13       1.518 -18.612  50.010  0.00  0.00    +0.000 A 
ATOM    756  C6  C   B  13       0.398 -19.258  49.651  0.00  0.00    +0.000 A 
ATOM    757  H   C   B  13       4.759 -18.919  49.575  0.00  0.00    +0.000 HD
ATOM    758  H   C   B  13       3.891 -17.732  50.439  0.00  0.00    +0.000 HD
ENDBRANCH  55 749
BRANCH 325 759
ATOM    759  N1  C   B  40       7.296  -5.405 -16.732  0.00  0.00    +0.000 N 
ATOM    760  C2  C   B  40       6.604  -5.609 -17.932  0.00  0.00    +0.000 A 
ATOM    761  O2  C   B  40       5.627  -4.905 -18.192  0.00  0.00    +0.000 OA
ATOM    762  N3  C   B  40       7.025  -6.582 -18.779  0.00  0.00    +0.000 NA
ATOM    763  C4  C   B  40       8.087  -7.323 -18.468  0.00  0.00    +0.000 A 
ATOM    764  N4  C   B  40       8.458  -8.264 -19.334  0.00  0.00    +0.000 N 
ATOM    765  C5  C   B  40       8.802  -7.134 -17.253  0.00  0.00    +0.000 A 
ATOM    766  C6  C   B  40       8.376  -6.169 -16.420  0.00  0.00    +0.000 A 
ATOM    767  H   C   B  40       7.956  -8.387 -20.172  0.00  0.00    +0.000 HD
ATOM    768  H   C   B  40       9.234  -8.837 -19.136  0.00  0.00    +0.000 HD
ENDBRANCH 325 759
BRANCH  85 769
ATOM    769  N1  C   B  16       9.750 -31.844  51.870  0.00  0.00    +0.000 N 
ATOM    770  C2  C   B  16       9.811 -32.416  50.600  0.00  0.00    +0.000 A 
ATOM    771  O2  C   B  16      10.906 -32.785  50.148  0.00  0.00    +0.000 OA
ATOM    772  N3  C   B  16       8.664 -32.558  49.886  0.00  0.00    +0.000 NA
ATOM    773  C4  C   B  16       7.500 -32.155  50.399  0.00  0.00    +0.000 A 
ATOM    774  N4  C   B  16       6.400 -32.316  49.661  0.00  0.00    +0.000 N 
ATOM    775  C5  C   B  16       7.414 -31.571  51.693  0.00  0.00    +0.000 A 
ATOM    776  C6  C   B  16       8.555 -31.438  52.390  0.00  0.00    +0.000 A 
ATOM    777  H   C   B  16       6.463 -32.721  48.766  0.00  0.00    +0.000 HD
ATOM    778  H   C   B  16       5.526 -32.030  50.012  0.00  0.00    +0.000 HD
ENDBRANCH  85 769
BRANCH 145 779
ATOM    779  N1  C   B  22       2.750 -10.751  38.980  0.00  0.00    +0.000 N 
ATOM    780  C2  C   B  22       3.795 -10.332  39.811  0.00  0.00    +0.000 A 
ATOM    781  O2  C   B  22       3.648  -9.312  40.498  0.00  0.00    +0.000 OA
ATOM    782  N3  C   B  22       4.946 -11.051  39.844  0.00  0.00    +0.000 NA
ATOM    783  C4  C   B  22       5.074 -12.144  39.089  0.00  0.00    +0.000 A 
ATOM    784  N4  C   B  22       6.225 -12.820  39.156  0.00  0.00    +0.000 N 
ATOM    785  C5  C   B  22       4.028 -12.589  38.236  0.00  0.00    +0.000 A 
ATOM    786  C6  C   B  22       2.894 -11.869  38.212  0.00  0.00    +0.000 A 
ATOM    787  H   C   B  22       6.352 -13.631  38.612  0.00  0.00    +0.000 HD
ATOM    788  H   C   B  22       6.946 -12.507  39.749  0.00  0.00    +0.000 HD
ENDBRANCH 145 779
BRANCH 505 789
ATOM    789  N1  C   B  58      15.819 -11.407  37.987  0.00  0.00    +0.000 N 
ATOM    790  C2  C   B  58      14.941 -10.330  37.825  0.00  0.00    +0.000 A 
ATOM    791  O2  C   B  58      15.370  -9.173  37.969  0.00  0.00    +0.000 OA
ATOM    792  N3  C   B  58      13.643 -10.574  37.516  0.00  0.00    +0.000 NA
ATOM    793  C4  C   B  58      13.215 -11.832  37.370  0.00  0.00    +0.000 A 
ATOM    794  N4  C   B  58      11.932 -12.022  37.069  0.00  0.00    +0.000 N 
ATOM    795  C5  C   B  58      14.089 -12.942  37.532  0.00  0.00    +0.000 A 
ATOM    796  C6  C   B  58      15.369 -12.687  37.837  0.00  0.00    +0.000 A 
ATOM    797  H   C   B  58      11.333 -11.249  36.958  0.00  0.00    +0.000 HD
ATOM    798  H   C   B  58      11.583 -12.936  36.957  0.00  0.00    +0.000 HD
ENDBRANCH 505 789
BRANCH 515 799
ATOM    799  N9  A   B  59      13.643  -9.401  41.238  0.00  0.00    +0.000 N 
ATOM    800  C8  A   B  59      13.857 -10.750  41.117  0.00  0.00    +0.000 A 
ATOM    801  N7  A   B  59      12.842 -11.401  40.601  0.00  0.00    +0.000 NA
ATOM    802  C5  A   B  59      11.894 -10.411  40.367  0.00  0.00    +0.000 A 
ATOM    803  C6  A   B  59      10.595 -10.449  39.829  0.00  0.00    +0.000 A 
ATOM    804  N1  A   B  59       9.921  -9.286  39.734  0.00  0.00    +0.000 NA
ATOM    805  C2  A   B  59      10.516  -8.162  40.152  0.00  0.00    +0.000 A 
ATOM    806  N3  A   B  59      11.729  -7.999  40.673  0.00  0.00    +0.000 NA
ATOM    807  C4  A   B  59      12.375  -9.179  40.755  0.00  0.00    +0.000 A 
BRANCH 803 808
ATOM    808  N6  A   B  59       9.996 -11.575  39.413  0.00  0.00    +0.000 N 
ATOM    809  H   A   B  59       9.084 -11.540  39.045  0.00  0.00    +0.000 HD
ATOM    810  H   A   B  59      10.469 -12.436  39.476  0.00  0.00    +0.000 HD
ENDBRANCH 803 808
ENDBRANCH 515 799
BRANCH 205 811
ATOM    811  N1  U   B  28      11.978 -13.085  20.308  0.00  0.00    +0.000 N 
ATOM    812  C2  U   B  28      10.647 -13.259  20.646  0.00  0.00    +0.000 A 
ATOM    813  O2  U   B  28      10.049 -14.306  20.467  0.00  0.00    +0.000 OA
ATOM    814  N3  U   B  28      10.037 -12.158  21.205  0.00  0.00    +0.000 N 
ATOM    815  C4  U   B  28      10.610 -10.929  21.451  0.00  0.00    +0.000 A 
ATOM    816  O4  U   B  28       9.932 -10.034  21.958  0.00  0.00    +0.000 OA
ATOM    817  C5  U   B  28      11.987 -10.828  21.070  0.00  0.00    +0.000 A 
ATOM    818  C6  U   B  28      12.608 -11.882  20.526  0.00  0.00    +0.000 A 
ATOM    819  H   U   B  28       9.090 -12.260  21.456  0.00  0.00    +0.000 HD
ENDBRANCH 205 811
BRANCH 195 820
ATOM    820  N1  U   B  27      14.362 -11.670  24.059  0.00  0.00    +0.000 N 
ATOM    821  C2  U   B  27      13.255 -12.500  24.069  0.00  0.00    +0.000 A 
ATOM    822  O2  U   B  27      13.314 -13.684  23.790  0.00  0.00    +0.000 OA
ATOM    823  N3  U   B  27      12.070 -11.893  24.418  0.00  0.00    +0.000 N 
ATOM    824  C4  U   B  27      11.885 -10.567  24.746  0.00  0.00    +0.000 A 
ATOM    825  O4  U   B  27      10.758 -10.168  25.038  0.00  0.00    +0.000 OA
ATOM    826  C5  U   B  27      13.075  -9.774  24.710  0.00  0.00    +0.000 A 
ATOM    827  C6  U   B  27      14.243 -10.338  24.376  0.00  0.00    +0.000 A 
ATOM    828  H   U   B  27      11.270 -12.466  24.435  0.00  0.00    +0.000 HD
ENDBRANCH 195 820
BRANCH 185 829
ATOM    829  N1  U   B  26      14.883  -9.453  28.198  0.00  0.00    +0.000 N 
ATOM    830  C2  U   B  26      14.376 -10.727  28.007  0.00  0.00    +0.000 A 
ATOM    831  O2  U   B  26      15.082 -11.697  27.805  0.00  0.00    +0.000 OA
ATOM    832  N3  U   B  26      13.004 -10.823  28.059  0.00  0.00    +0.000 N 
ATOM    833  C4  U   B  26      12.110  -9.798  28.275  0.00  0.00    +0.000 A 
ATOM    834  O4  U   B  26      10.906 -10.040  28.293  0.00  0.00    +0.000 OA
ATOM    835  C5  U   B  26      12.712  -8.514  28.462  0.00  0.00    +0.000 A 
ATOM    836  C6  U   B  26      14.045  -8.388  28.419  0.00  0.00    +0.000 A 
ATOM    837  H   U   B  26      12.621 -11.720  27.928  0.00  0.00    +0.000 HD
ENDBRANCH 185 829
BRANCH 175 838
ATOM    838  N1  U   B  25      13.208  -7.296  32.202  0.00  0.00    +0.000 N 
ATOM    839  C2  U   B  25      13.470  -8.645  32.026  0.00  0.00    +0.000 A 
ATOM    840  O2  U   B  25      14.593  -9.113  32.066  0.00  0.00    +0.000 OA
ATOM    841  N3  U   B  25      12.364  -9.430  31.798  0.00  0.00    +0.000 N 
ATOM    842  C4  U   B  25      11.054  -9.013  31.726  0.00  0.00    +0.000 A 
ATOM    843  O4  U   B  25      10.167  -9.838  31.513  0.00  0.00    +0.000 OA
ATOM    844  C5  U   B  25      10.865  -7.610  31.916  0.00  0.00    +0.000 A 
ATOM    845  C6  U   B  25      11.923  -6.818  32.143  0.00  0.00    +0.000 A 
ATOM    846  H   U   B  25      12.526 -10.393  31.673  0.00  0.00    +0.000 HD
ENDBRANCH 175 838
BRANCH 165 847
ATOM    847  N1  U   B  24       9.883  -6.234  35.559  0.00  0.00    +0.000 N 
ATOM    848  C2  U   B  24      10.864  -7.201  35.713  0.00  0.00    +0.000 A 
ATOM    849  O2  U   B  24      11.983  -6.949  36.116  0.00  0.00    +0.000 OA
ATOM    850  N3  U   B  24      10.482  -8.478  35.372  0.00  0.00    +0.000 N 
ATOM    851  C4  U   B  24       9.249  -8.878  34.903  0.00  0.00    +0.000 A 
ATOM    852  O4  U   B  24       9.059 -10.064  34.639  0.00  0.00    +0.000 OA
ATOM    853  C5  U   B  24       8.294  -7.823  34.773  0.00  0.00    +0.000 A 
ATOM    854  C6  U   B  24       8.634  -6.569  35.096  0.00  0.00    +0.000 A 
ATOM    855  H   U   B  24      11.163  -9.182  35.474  0.00  0.00    +0.000 HD
ENDBRANCH 165 847
BRANCH 155 856
ATOM    856  N1  U   B  23       5.860  -7.278  37.856  0.00  0.00    +0.000 N 
ATOM    857  C2  U   B  23       7.107  -7.537  38.398  0.00  0.00    +0.000 A 
ATOM    858  O2  U   B  23       7.730  -6.717  39.043  0.00  0.00    +0.000 OA
ATOM    859  N3  U   B  23       7.600  -8.799  38.154  0.00  0.00    +0.000 N 
ATOM    860  C4  U   B  23       6.986  -9.804  37.436  0.00  0.00    +0.000 A 
ATOM    861  O4  U   B  23       7.558 -10.887  37.302  0.00  0.00    +0.000 OA
ATOM    862  C5  U   B  23       5.704  -9.457  36.910  0.00  0.00    +0.000 A 
ATOM    863  C6  U   B  23       5.195  -8.236  37.133  0.00  0.00    +0.000 A 
ATOM    864  H   U   B  23       8.485  -9.006  38.532  0.00  0.00    +0.000 HD
ENDBRANCH 155 856
BRANCH 495 865
ATOM    865  N9  A   B  57      15.598 -14.004  33.942  0.00  0.00    +0.000 N 
ATOM    866  C8  A   B  57      14.655 -14.981  33.768  0.00  0.00    +0.000 A 
ATOM    867  N7  A   B  57      13.421 -14.531  33.772  0.00  0.00    +0.000 NA
ATOM    868  C5  A   B  57      13.564 -13.164  33.964  0.00  0.00    +0.000 A 
ATOM    869  C6  A   B  57      12.630 -12.120  34.063  0.00  0.00    +0.000 A 
ATOM    870  N1  A   B  57      13.103 -10.874  34.254  0.00  0.00    +0.000 NA
ATOM    871  C2  A   B  57      14.426 -10.693  34.339  0.00  0.00    +0.000 A 
ATOM    872  N3  A   B  57      15.403 -11.595  34.259  0.00  0.00    +0.000 NA
ATOM    873  C4  A   B  57      14.896 -12.828  34.071  0.00  0.00    +0.000 A 
BRANCH 869 874
ATOM    874  N6  A   B  57      11.303 -12.302  33.983  0.00  0.00    +0.000 N 
ATOM    875  H   A   B  57      10.938 -13.205  33.844  0.00  0.00    +0.000 HD
ATOM    876  H   A   B  57      10.695 -11.532  34.064  0.00  0.00    +0.000 HD
ENDBRANCH 869 874
ENDBRANCH 495 865
BRANCH  75 877
ATOM    877  N1  U   B  15       5.406 -24.435  55.064  0.00  0.00    +0.000 N 
ATOM    878  C2  U   B  15       6.245 -23.335  55.144  0.00  0.00    +0.000 A 
ATOM    879  O2  U   B  15       7.460 -23.431  55.228  0.00  0.00    +0.000 OA
ATOM    880  N3  U   B  15       5.610 -22.115  55.123  0.00  0.00    +0.000 N 
ATOM    881  C4  U   B  15       4.255 -21.890  55.028  0.00  0.00    +0.000 A 
ATOM    882  O4  U   B  15       3.837 -20.737  55.021  0.00  0.00    +0.000 OA
ATOM    883  C5  U   B  15       3.455 -23.075  54.948  0.00  0.00    +0.000 A 
ATOM    884  C6  U   B  15       4.044 -24.281  54.967  0.00  0.00    +0.000 A 
ATOM    885  H   U   B  15       6.185 -21.318  55.182  0.00  0.00    +0.000 HD
ENDBRANCH  75 877
BRANCH  45 886
ATOM    886  N1  U   B  12      -0.855 -16.128  47.176  0.00  0.00    +0.000 N 
ATOM    887  C2  U   B  12      -0.035 -17.092  46.616  0.00  0.00    +0.000 A 
ATOM    888  O2  U   B  12      -0.460 -17.984  45.904  0.00  0.00    +0.000 OA
ATOM    889  N3  U   B  12       1.303 -16.974  46.917  0.00  0.00    +0.000 N 
ATOM    890  C4  U   B  12       1.893 -16.009  47.706  0.00  0.00    +0.000 A 
ATOM    891  O4  U   B  12       3.111 -16.034  47.887  0.00  0.00    +0.000 OA
ATOM    892  C5  U   B  12       0.982 -15.050  48.251  0.00  0.00    +0.000 A 
ATOM    893  C6  U   B  12      -0.329 -15.139  47.975  0.00  0.00    +0.000 A 
ATOM    894  H   U   B  12       1.903 -17.651  46.527  0.00  0.00    +0.000 HD
ENDBRANCH  45 886
BRANCH  35 895
ATOM    895  N1  U   B  11       0.752 -11.843  46.015  0.00  0.00    +0.000 N 
ATOM    896  C2  U   B  11       0.946 -13.010  45.294  0.00  0.00    +0.000 A 
ATOM    897  O2  U   B  11       0.066 -13.527  44.631  0.00  0.00    +0.000 OA
ATOM    898  N3  U   B  11       2.210 -13.550  45.378  0.00  0.00    +0.000 N 
ATOM    899  C4  U   B  11       3.278 -13.054  46.094  0.00  0.00    +0.000 A 
ATOM    900  O4  U   B  11       4.352 -13.653  46.072  0.00  0.00    +0.000 OA
ATOM    901  C5  U   B  11       2.999 -11.848  46.814  0.00  0.00    +0.000 A 
ATOM    902  C6  U   B  11       1.778 -11.297  46.752  0.00  0.00    +0.000 A 
ATOM    903  H   U   B  11       2.368 -14.380  44.872  0.00  0.00    +0.000 HD
ENDBRANCH  35 895
BRANCH  25 904
ATOM    904  N1  U   B  10       4.012  -8.667  44.900  0.00  0.00    +0.000 N 
ATOM    905  C2  U   B  10       3.613  -9.757  44.159  0.00  0.00    +0.000 A 
ATOM    906  O2  U   B  10       2.516  -9.843  43.635  0.00  0.00    +0.000 OA
ATOM    907  N3  U   B  10       4.546 -10.766  44.049  0.00  0.00    +0.000 N 
ATOM    908  C4  U   B  10       5.810 -10.788  44.594  0.00  0.00    +0.000 A 
ATOM    909  O4  U   B  10       6.535 -11.765  44.409  0.00  0.00    +0.000 OA
ATOM    910  C5  U   B  10       6.151  -9.619  45.351  0.00  0.00    +0.000 A 
ATOM    911  C6  U   B  10       5.264  -8.622  45.471  0.00  0.00    +0.000 A 
ATOM    912  H   U   B  10       4.280 -11.555  43.524  0.00  0.00    +0.000 HD
ENDBRANCH  25 904
BRANCH 435 913
ATOM    913  N1  U   B  51       1.557  -4.723  20.457  0.00  0.00    +0.000 N 
ATOM    914  C2  U   B  51       1.910  -5.768  19.622  0.00  0.00    +0.000 A 
ATOM    915  O2  U   B  51       1.090  -6.502  19.102  0.00  0.00    +0.000 OA
ATOM    916  N3  U   B  51       3.262  -5.923  19.415  0.00  0.00    +0.000 N 
ATOM    917  C4  U   B  51       4.275  -5.159  19.949  0.00  0.00    +0.000 A 
ATOM    918  O4  U   B  51       5.445  -5.423  19.670  0.00  0.00    +0.000 OA
ATOM    919  C5  U   B  51       3.832  -4.098  20.804  0.00  0.00    +0.000 A 
ATOM    920  C6  U   B  51       2.521  -3.920  21.022  0.00  0.00    +0.000 A 
ATOM    921  H   U   B  51       3.534  -6.660  18.821  0.00  0.00    +0.000 HD
ENDBRANCH 435 913
BRANCH 395 922
ATOM    922  N1  U   B  47      12.201   0.684   9.762  0.00  0.00    +0.000 N 
ATOM    923  C2  U   B  47      10.926   1.220   9.676  0.00  0.00    +0.000 A 
ATOM    924  O2  U   B  47      10.701   2.410   9.787  0.00  0.00    +0.000 OA
ATOM    925  N3  U   B  47       9.920   0.306   9.455  0.00  0.00    +0.000 N 
ATOM    926  C4  U   B  47      10.057  -1.061   9.316  0.00  0.00    +0.000 A 
ATOM    927  O4  U   B  47       9.055  -1.752   9.121  0.00  0.00    +0.000 OA
ATOM    928  C5  U   B  47      11.403  -1.537   9.419  0.00  0.00    +0.000 A 
ATOM    929  C6  U   B  47      12.403  -0.671   9.633  0.00  0.00    +0.000 A 
ATOM    930  H   U   B  47       9.006   0.665   9.389  0.00  0.00    +0.000 HD
ENDBRANCH 395 922
BRANCH 385 931
ATOM    931  N1  U   B  46      13.341  -1.879   5.921  0.00  0.00    +0.000 N 
ATOM    932  C2  U   B  46      12.424  -0.846   6.013  0.00  0.00    +0.000 A 
ATOM    933  O2  U   B  46      12.757   0.322   6.105  0.00  0.00    +0.000 OA
ATOM    934  N3  U   B  46      11.106  -1.231   5.996  0.00  0.00    +0.000 N 
ATOM    935  C4  U   B  46      10.618  -2.515   5.899  0.00  0.00    +0.000 A 
ATOM    936  O4  U   B  46       9.401  -2.702   5.895  0.00  0.00    +0.000 OA
ATOM    937  C5  U   B  46      11.624  -3.527   5.808  0.00  0.00    +0.000 A 
ATOM    938  C6  U   B  46      12.920  -3.182   5.822  0.00  0.00    +0.000 A 
ATOM    939  H   U   B  46      10.438  -0.511   6.060  0.00  0.00    +0.000 HD
ENDBRANCH 385 931
BRANCH 405 940
ATOM    940  N9  A   B  48       9.638   2.298  13.368  0.00  0.00    +0.000 N 
ATOM    941  C8  A   B  48      10.383   1.160  13.184  0.00  0.00    +0.000 A 
ATOM    942  N7  A   B  48       9.685   0.137  12.753  0.00  0.00    +0.000 NA
ATOM    943  C5  A   B  48       8.391   0.632  12.653  0.00  0.00    +0.000 A 
ATOM    944  C6  A   B  48       7.176   0.042  12.255  0.00  0.00    +0.000 A 
ATOM    945  N1  A   B  48       6.073   0.813  12.271  0.00  0.00    +0.000 NA
ATOM    946  C2  A   B  48       6.184   2.089  12.661  0.00  0.00    +0.000 A 
ATOM    947  N3  A   B  48       7.267   2.757  13.055  0.00  0.00    +0.000 NA
ATOM    948  C4  A   B  48       8.349   1.960  13.029  0.00  0.00    +0.000 A 
BRANCH 944 949
ATOM    949  N6  A   B  48       7.063  -1.236  11.865  0.00  0.00    +0.000 N 
ATOM    950  H   A   B  48       6.185  -1.593  11.597  0.00  0.00    +0.000 HD
ATOM    951  H   A   B  48       7.858  -1.817  11.846  0.00  0.00    +0.000 HD
ENDBRANCH 944 949
ENDBRANCH 405 940
BRANCH 375 952
ATOM    952  N1  U   B  45      12.650  -4.146   2.065  0.00  0.00    +0.000 N 
ATOM    953  C2  U   B  45      12.562  -2.777   2.259  0.00  0.00    +0.000 A 
ATOM    954  O2  U   B  45      13.531  -2.041   2.253  0.00  0.00    +0.000 OA
ATOM    955  N3  U   B  45      11.289  -2.299   2.471  0.00  0.00    +0.000 N 
ATOM    956  C4  U   B  45      10.118  -3.030   2.503  0.00  0.00    +0.000 A 
ATOM    957  O4  U   B  45       9.050  -2.451   2.703  0.00  0.00    +0.000 OA
ATOM    958  C5  U   B  45      10.289  -4.433   2.293  0.00  0.00    +0.000 A 
ATOM    959  C6  U   B  45      11.520  -4.930   2.080  0.00  0.00    +0.000 A 
ATOM    960  H   U   B  45      11.204  -1.329   2.616  0.00  0.00    +0.000 HD
ENDBRANCH 375 952
BRANCH 415 961
ATOM    961  N1  U   B  49       6.232   1.861  16.592  0.00  0.00    +0.000 N 
ATOM    962  C2  U   B  49       5.200   1.131  16.028  0.00  0.00    +0.000 A 
ATOM    963  O2  U   B  49       4.048   1.529  15.998  0.00  0.00    +0.000 OA
ATOM    964  N3  U   B  49       5.564  -0.087  15.499  0.00  0.00    +0.000 N 
ATOM    965  C4  U   B  49       6.829  -0.638  15.480  0.00  0.00    +0.000 A 
ATOM    966  O4  U   B  49       7.000  -1.745  14.967  0.00  0.00    +0.000 OA
ATOM    967  C5  U   B  49       7.840   0.176  16.085  0.00  0.00    +0.000 A 
ATOM    968  C6  U   B  49       7.514   1.367  16.607  0.00  0.00    +0.000 A 
ATOM    969  H   U   B  49       4.845  -0.622  15.091  0.00  0.00    +0.000 HD
ENDBRANCH 415 961
BRANCH 355 970
ATOM    970  N9  A   B  43       7.169 -10.707  -4.817  0.00  0.00    +0.000 N 
ATOM    971  C8  A   B  43       5.883 -10.230  -4.787  0.00  0.00    +0.000 A 
ATOM    972  N7  A   B  43       5.800  -8.927  -4.903  0.00  0.00    +0.000 NA
ATOM    973  C5  A   B  43       7.123  -8.517  -5.016  0.00  0.00    +0.000 A 
ATOM    974  C6  A   B  43       7.714  -7.252  -5.167  0.00  0.00    +0.000 A 
ATOM    975  N1  A   B  43       9.057  -7.188  -5.248  0.00  0.00    +0.000 NA
ATOM    976  C2  A   B  43       9.752  -8.333  -5.181  0.00  0.00    +0.000 A 
ATOM    977  N3  A   B  43       9.315  -9.582  -5.042  0.00  0.00    +0.000 NA
ATOM    978  C4  A   B  43       7.974  -9.605  -4.964  0.00  0.00    +0.000 A 
BRANCH 974 979
ATOM    979  N6  A   B  43       7.015  -6.108  -5.226  0.00  0.00    +0.000 N 
ATOM    980  H   A   B  43       7.484  -5.249  -5.333  0.00  0.00    +0.000 HD
ATOM    981  H   A   B  43       6.033  -6.127  -5.162  0.00  0.00    +0.000 HD
ENDBRANCH 974 979
ENDBRANCH 355 970
BRANCH 425 982
ATOM    982  N1  U   B  50       3.260  -0.697  18.940  0.00  0.00    +0.000 N 
ATOM    983  C2  U   B  50       2.862  -1.771  18.163  0.00  0.00    +0.000 A 
ATOM    984  O2  U   B  50       1.696  -2.001  17.903  0.00  0.00    +0.000 OA
ATOM    985  N3  U   B  50       3.885  -2.567  17.701  0.00  0.00    +0.000 N 
ATOM    986  C4  U   B  50       5.236  -2.406  17.933  0.00  0.00    +0.000 A 
ATOM    987  O4  U   B  50       6.032  -3.207  17.449  0.00  0.00    +0.000 OA
ATOM    988  C5  U   B  50       5.565  -1.275  18.747  0.00  0.00    +0.000 A 
ATOM    989  C6  U   B  50       4.590  -0.479  19.211  0.00  0.00    +0.000 A 
ATOM    990  H   U   B  50       3.625  -3.336  17.144  0.00  0.00    +0.000 HD
ENDBRANCH 425 982
BRANCH 345 991
ATOM    991  N1  U   B  42       5.379 -12.858  -8.526  0.00  0.00    +0.000 N 
ATOM    992  C2  U   B  42       6.369 -13.787  -8.803  0.00  0.00    +0.000 A 
ATOM    993  O2  U   B  42       6.159 -14.985  -8.858  0.00  0.00    +0.000 OA
ATOM    994  N3  U   B  42       7.623 -13.260  -9.001  0.00  0.00    +0.000 N 
ATOM    995  C4  U   B  42       7.982 -11.929  -8.961  0.00  0.00    +0.000 A 
ATOM    996  O4  U   B  42       9.151 -11.609  -9.164  0.00  0.00    +0.000 OA
ATOM    997  C5  U   B  42       6.903 -11.030  -8.673  0.00  0.00    +0.000 A 
ATOM    998  C6  U   B  42       5.670 -11.517  -8.474  0.00  0.00    +0.000 A 
ATOM    999  H   U   B  42       8.344 -13.903  -9.192  0.00  0.00    +0.000 HD
ENDBRANCH 345 991
BRANCH 3351000
ATOM   1000  N1  U   B  41       4.971 -10.651 -12.546  0.00  0.00    +0.000 N 
ATOM   1001  C2  U   B  41       5.160 -12.019 -12.495  0.00  0.00    +0.000 A 
ATOM   1002  O2  U   B  41       4.240 -12.813 -12.478  0.00  0.00    +0.000 OA
ATOM   1003  N3  U   B  41       6.471 -12.422 -12.456  0.00  0.00    +0.000 N 
ATOM   1004  C4  U   B  41       7.590 -11.618 -12.468  0.00  0.00    +0.000 A 
ATOM   1005  O4  U   B  41       8.705 -12.132 -12.434  0.00  0.00    +0.000 OA
ATOM   1006  C5  U   B  41       7.314 -10.215 -12.523  0.00  0.00    +0.000 A 
ATOM   1007  C6  U   B  41       6.044  -9.792 -12.563  0.00  0.00    +0.000 A 
ATOM   1008  H   U   B  41       6.630 -13.393 -12.415  0.00  0.00    +0.000 HD
ENDBRANCH 3351000
BRANCH 4451009
ATOM   1009  N1  U   B  52       1.555  -9.288  21.493  0.00  0.00    +0.000 N 
ATOM   1010  C2  U   B  52       2.524  -9.952  20.760  0.00  0.00    +0.000 A 
ATOM   1011  O2  U   B  52       2.275 -10.915  20.056  0.00  0.00    +0.000 OA
ATOM   1012  N3  U   B  52       3.799  -9.443  20.878  0.00  0.00    +0.000 N 
ATOM   1013  C4  U   B  52       4.195  -8.367  21.641  0.00  0.00    +0.000 A 
ATOM   1014  O4  U   B  52       5.379  -8.031  21.647  0.00  0.00    +0.000 OA
ATOM   1015  C5  U   B  52       3.139  -7.736  22.373  0.00  0.00    +0.000 A 
ATOM   1016  C6  U   B  52       1.887  -8.206  22.276  0.00  0.00    +0.000 A 
ATOM   1017  H   U   B  52       4.503  -9.898  20.361  0.00  0.00    +0.000 HD
ENDBRANCH 4451009
BRANCH 3151018
ATOM   1018  N1  U   B  39       9.835  -5.575  -8.442  0.00  0.00    +0.000 N 
ATOM   1019  C2  U   B  39       9.810  -4.202  -8.449  0.00  0.00    +0.000 A 
ATOM   1020  O2  U   B  39      10.622  -3.501  -9.015  0.00  0.00    +0.000 OA
ATOM   1021  N3  U   B  39       8.783  -3.621  -7.739  0.00  0.00    +0.000 N 
ATOM   1022  C4  U   B  39       7.793  -4.267  -7.041  0.00  0.00    +0.000 A 
ATOM   1023  O4  U   B  39       6.934  -3.611  -6.456  0.00  0.00    +0.000 OA
ATOM   1024  C5  U   B  39       7.880  -5.686  -7.083  0.00  0.00    +0.000 A 
ATOM   1025  C6  U   B  39       8.874  -6.279  -7.755  0.00  0.00    +0.000 A 
ATOM   1026  H   U   B  39       8.756  -2.637  -7.731  0.00  0.00    +0.000 HD
ENDBRANCH 3151018
BRANCH 3051027
ATOM   1027  N1  U   B  38      12.599  -3.096  -4.921  0.00  0.00    +0.000 N 
ATOM   1028  C2  U   B  38      11.673  -4.108  -4.750  0.00  0.00    +0.000 A 
ATOM   1029  O2  U   B  38      11.948  -5.283  -4.909  0.00  0.00    +0.000 OA
ATOM   1030  N3  U   B  38      10.413  -3.696  -4.392  0.00  0.00    +0.000 N 
ATOM   1031  C4  U   B  38       9.991  -2.399  -4.191  0.00  0.00    +0.000 A 
ATOM   1032  O4  U   B  38       8.824  -2.189  -3.871  0.00  0.00    +0.000 OA
ATOM   1033  C5  U   B  38      11.005  -1.408  -4.388  0.00  0.00    +0.000 A 
ATOM   1034  C6  U   B  38      12.245  -1.781  -4.737  0.00  0.00    +0.000 A 
ATOM   1035  H   U   B  38       9.739  -4.402  -4.265  0.00  0.00    +0.000 HD
ENDBRANCH 3051027
BRANCH 2851036
ATOM   1036  N1  U   B  36      10.059   2.329   2.819  0.00  0.00    +0.000 N 
ATOM   1037  C2  U   B  36      10.081   0.941   2.812  0.00  0.00    +0.000 A 
ATOM   1038  O2  U   B  36      11.098   0.295   2.969  0.00  0.00    +0.000 OA
ATOM   1039  N3  U   B  36       8.862   0.337   2.609  0.00  0.00    +0.000 N 
ATOM   1040  C4  U   B  36       7.647   0.960   2.415  0.00  0.00    +0.000 A 
ATOM   1041  O4  U   B  36       6.637   0.276   2.247  0.00  0.00    +0.000 OA
ATOM   1042  C5  U   B  36       7.702   2.389   2.436  0.00  0.00    +0.000 A 
ATOM   1043  C6  U   B  36       8.879   3.008   2.633  0.00  0.00    +0.000 A 
ATOM   1044  H   U   B  36       8.856  -0.647   2.601  0.00  0.00    +0.000 HD
ENDBRANCH 2851036
BRANCH 2751045
ATOM   1045  N9  A   B  35       7.355   4.254   6.117  0.00  0.00    +0.000 N 
ATOM   1046  C8  A   B  35       6.080   3.851   5.792  0.00  0.00    +0.000 A 
ATOM   1047  N7  A   B  35       5.962   2.555   5.642  0.00  0.00    +0.000 NA
ATOM   1048  C5  A   B  35       7.241   2.070   5.874  0.00  0.00    +0.000 A 
ATOM   1049  C6  A   B  35       7.785   0.774   5.862  0.00  0.00    +0.000 A 
ATOM   1050  N1  A   B  35       9.098   0.644   6.135  0.00  0.00    +0.000 NA
ATOM   1051  C2  A   B  35       9.811   1.743   6.402  0.00  0.00    +0.000 A 
ATOM   1052  N3  A   B  35       9.414   3.013   6.445  0.00  0.00    +0.000 NA
ATOM   1053  C4  A   B  35       8.106   3.106   6.165  0.00  0.00    +0.000 A 
BRANCH10491054
ATOM   1054  N6  A   B  35       7.072  -0.327   5.595  0.00  0.00    +0.000 N 
ATOM   1055  H   A   B  35       6.111  -0.254   5.393  0.00  0.00    +0.000 HD
ATOM   1056  H   A   B  35       7.508  -1.209   5.601  0.00  0.00    +0.000 HD
ENDBRANCH10491054
ENDBRANCH 2751045
BRANCH 2651057
ATOM   1057  N9  A   B  34       4.017   3.710   9.044  0.00  0.00    +0.000 N 
ATOM   1058  C8  A   B  34       3.164   2.717   8.625  0.00  0.00    +0.000 A 
ATOM   1059  N7  A   B  34       3.744   1.550   8.480  0.00  0.00    +0.000 NA
ATOM   1060  C5  A   B  34       5.067   1.790   8.817  0.00  0.00    +0.000 A 
ATOM   1061  C6  A   B  34       6.201   0.960   8.865  0.00  0.00    +0.000 A 
ATOM   1062  N1  A   B  34       7.368   1.516   9.246  0.00  0.00    +0.000 NA
ATOM   1063  C2  A   B  34       7.390   2.819   9.554  0.00  0.00    +0.000 A 
ATOM   1064  N3  A   B  34       6.393   3.700   9.549  0.00  0.00    +0.000 NA
ATOM   1065  C4  A   B  34       5.248   3.115   9.165  0.00  0.00    +0.000 A 
BRANCH10611066
ATOM   1066  N6  A   B  34       6.180  -0.343   8.557  0.00  0.00    +0.000 N 
ATOM   1067  H   A   B  34       5.338  -0.769   8.276  0.00  0.00    +0.000 HD
ATOM   1068  H   A   B  34       7.007  -0.875   8.611  0.00  0.00    +0.000 HD
ENDBRANCH10611066
ENDBRANCH 2651057
BRANCH 2551069
ATOM   1069  N1  U   B  33       1.253   0.776  11.334  0.00  0.00    +0.000 N 
ATOM   1070  C2  U   B  33       2.533   1.081  11.768  0.00  0.00    +0.000 A 
ATOM   1071  O2  U   B  33       2.794   2.087  12.400  0.00  0.00    +0.000 OA
ATOM   1072  N3  U   B  33       3.496   0.157  11.439  0.00  0.00    +0.000 N 
ATOM   1073  C4  U   B  33       3.316  -1.011  10.730  0.00  0.00    +0.000 A 
ATOM   1074  O4  U   B  33       4.281  -1.742  10.509  0.00  0.00    +0.000 OA
ATOM   1075  C5  U   B  33       1.970  -1.255  10.313  0.00  0.00    +0.000 A 
ATOM   1076  C6  U   B  33       1.009  -0.374  10.623  0.00  0.00    +0.000 A 
ATOM   1077  H   U   B  33       4.412   0.350  11.742  0.00  0.00    +0.000 HD
ENDBRANCH 2551069
BRANCH  111078
ATOM   1078  N6  A   B   9      11.714   2.428  50.985  0.00  0.00    +0.000 NA
ATOM   1079  H   A   B   9      12.725   2.300  51.039  0.00  0.00    +0.000 HD
ATOM   1080  H   A   B   9      11.296   2.221  51.892  0.00  0.00    +0.000 HD
ENDBRANCH  111078
BRANCH 4761081
ATOM   1081  OP2 A   B  56      10.498 -20.580  30.580  0.00  0.00    +0.000 OA
ATOM   1082  H   A   B  56      10.352 -19.706  30.186  0.00  0.00    +0.000 HD
ENDBRANCH 4761081
BRANCH 4061083
ATOM   1083  OP1 U   B  49      11.658   3.702  19.690  0.00  0.00    +0.000 OA
ATOM   1084  H   U   B  49      12.625   3.643  19.636  0.00  0.00    +0.000 HD
ENDBRANCH 4061083
BRANCH 4661085
ATOM   1085  OP2 A   B  55       5.972 -19.357  28.271  0.00  0.00    +0.000 OA
ATOM   1086  H   A   B  55       6.199 -18.513  27.851  0.00  0.00    +0.000 HD
ENDBRANCH 4661085
BRANCH 4741087
ATOM   1087  O2' A   B  55      13.185 -19.754  26.604  0.00  0.00    +0.000 OA
ATOM   1088  H   A   B  55      12.868 -20.342  25.900  0.00  0.00    +0.000 HD
ENDBRANCH 4741087
BRANCH 4161089
ATOM   1089  OP1 U   B  50       6.294   3.159  23.225  0.00  0.00    +0.000 OA
ATOM   1090  H   U   B  50       7.139   3.605  23.393  0.00  0.00    +0.000 HD
ENDBRANCH 4161089
BRANCH 4041091
ATOM   1091  O2' A   B  48       9.582   5.212  15.550  0.00  0.00    +0.000 OA
ATOM   1092  H   A   B  48      10.318   5.739  15.201  0.00  0.00    +0.000 HD
ENDBRANCH 4041091
BRANCH 3961093
ATOM   1093  OP1 A   B  48      15.680   1.265  15.555  0.00  0.00    +0.000 OA
ATOM   1094  H   A   B  48      16.466   0.711  15.424  0.00  0.00    +0.000 HD
ENDBRANCH 3961093
BRANCH 4841095
ATOM   1095  O2' A   B  56      17.102 -17.198  30.722  0.00  0.00    +0.000 OA
ATOM   1096  H   A   B  56      17.290 -17.804  29.989  0.00  0.00    +0.000 HD
ENDBRANCH 4841095
BRANCH 4541097
ATOM   1097  O2' A   B  53       2.441 -16.937  22.224  0.00  0.00    +0.000 OA
ATOM   1098  H   A   B  53       1.552 -16.860  21.844  0.00  0.00    +0.000 HD
ENDBRANCH 4541097
BRANCH 4361099
ATOM   1099  OP1 U   B  52      -1.642  -6.199  26.252  0.00  0.00    +0.000 OA
ATOM   1100  H   U   B  52      -2.496  -6.448  25.865  0.00  0.00    +0.000 HD
ENDBRANCH 4361099
BRANCH 4261101
ATOM   1101  OP1 U   B  51       1.329  -0.492  25.414  0.00  0.00    +0.000 OA
ATOM   1102  H   U   B  51       0.389  -0.316  25.251  0.00  0.00    +0.000 HD
ENDBRANCH 4261101
BRANCH 4441103
ATOM   1103  O2' U   B  52      -1.038 -11.848  21.687  0.00  0.00    +0.000 OA
ATOM   1104  H   U   B  52      -1.839 -11.336  21.494  0.00  0.00    +0.000 HD
ENDBRANCH 4441103
BRANCH 4461105
ATOM   1105  OP1 A   B  53      -1.695 -12.660  26.395  0.00  0.00    +0.000 OA
ATOM   1106  H   A   B  53      -2.235 -13.229  25.825  0.00  0.00    +0.000 HD
ENDBRANCH 4461105
BRANCH 4241107
ATOM   1107  O2' U   B  50       0.186   0.026  20.755  0.00  0.00    +0.000 OA
ATOM   1108  H   U   B  50       0.136   0.992  20.690  0.00  0.00    +0.000 HD
ENDBRANCH 4241107
BRANCH 4141109
ATOM   1109  O2' U   B  49       4.424   4.093  18.837  0.00  0.00    +0.000 OA
ATOM   1110  H   U   B  49       4.842   4.948  18.649  0.00  0.00    +0.000 HD
ENDBRANCH 4141109
BRANCH 4561111
ATOM   1111  OP2 A   B  54       2.233 -15.938  26.932  0.00  0.00    +0.000 OA
ATOM   1112  H   A   B  54       2.748 -15.304  26.410  0.00  0.00    +0.000 HD
ENDBRANCH 4561111
BRANCH 4641113
ATOM   1113  O2' A   B  54       7.690 -19.812  23.756  0.00  0.00    +0.000 OA
ATOM   1114  H   A   B  54       6.974 -20.135  23.187  0.00  0.00    +0.000 HD
ENDBRANCH 4641113
BRANCH 4341115
ATOM   1115  O2' U   B  51      -1.789  -5.766  21.454  0.00  0.00    +0.000 OA
ATOM   1116  H   U   B  51      -2.291  -4.940  21.375  0.00  0.00    +0.000 HD
ENDBRANCH 4341115
BRANCH 3661117
ATOM   1117  OP1 U   B  45      12.095 -10.190   4.063  0.00  0.00    +0.000 OA
ATOM   1118  H   U   B  45      12.979 -10.437   3.748  0.00  0.00    +0.000 HD
ENDBRANCH 3661117
BRANCH 5241119
ATOM   1119  O2' G   B  60       8.807  -5.888  46.144  0.00  0.00    +0.000 OA
ATOM   1120  H   G   B  60       9.489  -5.213  46.004  0.00  0.00    +0.000 HD
ENDBRANCH 5241119
BRANCH 4941121
ATOM   1121  O2' A   B  57      18.867 -13.680  35.500  0.00  0.00    +0.000 OA
ATOM   1122  H   A   B  57      19.442 -14.120  34.855  0.00  0.00    +0.000 HD
ENDBRANCH 4941121
BRANCH 4961123
ATOM   1123  OP1 C   B  58      18.711 -17.204  38.971  0.00  0.00    +0.000 OA
ATOM   1124  H   C   B  58      18.734 -18.109  38.622  0.00  0.00    +0.000 HD
ENDBRANCH 4961123
BRANCH 5041125
ATOM   1125  O2' C   B  58      18.435  -9.981  40.067  0.00  0.00    +0.000 OA
ATOM   1126  H   C   B  58      19.240 -10.276  39.613  0.00  0.00    +0.000 HD
ENDBRANCH 5041125
BRANCH 5061127
ATOM   1127  OP1 A   B  59      18.482 -12.765  44.001  0.00  0.00    +0.000 OA
ATOM   1128  H   A   B  59      19.001 -13.580  43.919  0.00  0.00    +0.000 HD
ENDBRANCH 5061127
BRANCH 5141129
ATOM   1129  O2' A   B  59      14.562  -6.656  43.437  0.00  0.00    +0.000 OA
ATOM   1130  H   A   B  59      15.485  -6.496  43.187  0.00  0.00    +0.000 HD
ENDBRANCH 5141129
BRANCH 5161131
ATOM   1131  OP1 G   B  60      15.317  -8.692  47.782  0.00  0.00    +0.000 OA
ATOM   1132  H   G   B  60      16.197  -9.089  47.870  0.00  0.00    +0.000 HD
ENDBRANCH 5161131
BRANCH 4861133
ATOM   1133  OP1 A   B  57      16.640 -20.444  34.337  0.00  0.00    +0.000 OA
ATOM   1134  H   A   B  57      16.289 -21.310  34.076  0.00  0.00    +0.000 HD
ENDBRANCH 4861133
BRANCH 5261135
ATOM   1135  OP2 A   B  61       9.149  -7.266  50.364  0.00  0.00    +0.000 OA
ATOM   1136  H   A   B  61       8.307  -7.464  49.926  0.00  0.00    +0.000 HD
ENDBRANCH 5261135
BRANCH 5331137
ATOM   1137  O2' A   B  61      16.460  -6.388  51.642  0.00  0.00    +0.000 OA
ATOM   1138  H   A   B  61      16.509  -7.229  51.161  0.00  0.00    +0.000 HD
ENDBRANCH 5331137
BRANCH  861139
ATOM   1139  OP1 C   B  17      13.064 -26.050  53.378  0.00  0.00    +0.000 OA
ATOM   1140  H   C   B  17      12.972 -25.185  52.949  0.00  0.00    +0.000 HD
ENDBRANCH  861139
BRANCH  241141
ATOM   1141  O2' U   B  10       0.782  -7.221  45.756  0.00  0.00    +0.000 OA
ATOM   1142  H   U   B  10       0.922  -6.283  45.554  0.00  0.00    +0.000 HD
ENDBRANCH  241141
BRANCH  261143
ATOM   1143  OP1 U   B  11       0.571  -7.027  50.533  0.00  0.00    +0.000 OA
ATOM   1144  H   U   B  11      -0.223  -6.665  50.110  0.00  0.00    +0.000 HD
ENDBRANCH  261143
BRANCH  341145
ATOM   1145  O2' U   B  11      -2.865 -11.882  46.337  0.00  0.00    +0.000 OA
ATOM   1146  H   U   B  11      -3.105 -10.974  46.094  0.00  0.00    +0.000 HD
ENDBRANCH  341145
BRANCH  361147
ATOM   1147  OP1 U   B  12      -3.798 -11.711  51.070  0.00  0.00    +0.000 OA
ATOM   1148  H   U   B  12      -4.602 -11.745  50.528  0.00  0.00    +0.000 HD
ENDBRANCH  361147
BRANCH  441149
ATOM   1149  O2' U   B  12      -4.082 -17.807  47.103  0.00  0.00    +0.000 OA
ATOM   1150  H   U   B  12      -4.657 -17.138  46.699  0.00  0.00    +0.000 HD
ENDBRANCH  441149
BRANCH  461151
ATOM   1151  OP2 C   B  13      -3.349 -17.137  51.641  0.00  0.00    +0.000 OA
ATOM   1152  H   C   B  13      -2.568 -17.088  51.068  0.00  0.00    +0.000 HD
ENDBRANCH  461151
BRANCH  541153
ATOM   1153  O2' C   B  13      -1.710 -23.317  48.442  0.00  0.00    +0.000 OA
ATOM   1154  H   C   B  13      -2.548 -22.905  48.179  0.00  0.00    +0.000 HD
ENDBRANCH  541153
BRANCH  561155
ATOM   1155  OP2 A   B  14      -1.636 -22.416  53.382  0.00  0.00    +0.000 OA
ATOM   1156  H   A   B  14      -0.984 -21.861  52.925  0.00  0.00    +0.000 HD
ENDBRANCH  561155
BRANCH  641157
ATOM   1157  O2' A   B  14       3.447 -27.027  50.597  0.00  0.00    +0.000 OA
ATOM   1158  H   A   B  14       2.767 -27.215  49.931  0.00  0.00    +0.000 HD
ENDBRANCH  641157
BRANCH  661159
ATOM   1159  OP2 U   B  15       0.800 -26.618  54.786  0.00  0.00    +0.000 OA
ATOM   1160  H   U   B  15      -0.144 -26.703  54.579  0.00  0.00    +0.000 HD
ENDBRANCH  661159
BRANCH  741161
ATOM   1161  O2' U   B  15       6.245 -26.318  57.453  0.00  0.00    +0.000 OA
ATOM   1162  H   U   B  15       7.198 -26.417  57.304  0.00  0.00    +0.000 HD
ENDBRANCH  741161
BRANCH  761163
ATOM   1163  OP2 C   B  16       8.105 -30.092  57.369  0.00  0.00    +0.000 OA
ATOM   1164  H   C   B  16       8.431 -31.004  57.421  0.00  0.00    +0.000 HD
ENDBRANCH  761163
BRANCH  841165
ATOM   1165  O2' C   B  16      13.181 -30.730  52.362  0.00  0.00    +0.000 OA
ATOM   1166  H   C   B  16      13.378 -31.051  53.256  0.00  0.00    +0.000 HD
ENDBRANCH  841165
BRANCH  161167
ATOM   1167  OP2 U   B  10       3.148  -2.688  46.771  0.00  0.00    +0.000 OA
ATOM   1168  H   U   B  10       2.728  -1.887  46.421  0.00  0.00    +0.000 HD
ENDBRANCH  161167
BRANCH  941169
ATOM   1169  O2' C   B  17      14.397 -28.161  46.591  0.00  0.00    +0.000 OA
ATOM   1170  H   C   B  17      15.016 -28.625  47.175  0.00  0.00    +0.000 HD
ENDBRANCH  941169
BRANCH  961171
ATOM   1171  OP2 G   B  18      13.036 -24.116  48.827  0.00  0.00    +0.000 OA
ATOM   1172  H   G   B  18      12.778 -23.211  48.590  0.00  0.00    +0.000 HD
ENDBRANCH  961171
BRANCH 1041173
ATOM   1173  O2' G   B  18       8.680 -26.095  45.193  0.00  0.00    +0.000 OA
ATOM   1174  H   G   B  18       9.467 -26.610  45.431  0.00  0.00    +0.000 HD
ENDBRANCH 1041173
BRANCH 1061175
ATOM   1175  OP2 A   B  19      10.355 -22.042  43.029  0.00  0.00    +0.000 OA
ATOM   1176  H   A   B  19      10.150 -21.375  42.356  0.00  0.00    +0.000 HD
ENDBRANCH 1061175
BRANCH 1141177
ATOM   1177  O2' A   B  19       3.374 -23.993  41.508  0.00  0.00    +0.000 OA
ATOM   1178  H   A   B  19       3.694 -24.897  41.657  0.00  0.00    +0.000 HD
ENDBRANCH 1141177
BRANCH 1161179
ATOM   1179  OP2 A   B  20       6.923 -21.444  39.442  0.00  0.00    +0.000 OA
ATOM   1180  H   A   B  20       7.082 -20.718  38.818  0.00  0.00    +0.000 HD
ENDBRANCH 1161179
BRANCH 1241181
ATOM   1181  O2' A   B  20      -0.271 -19.654  39.103  0.00  0.00    +0.000 OA
ATOM   1182  H   A   B  20      -0.381 -20.618  39.087  0.00  0.00    +0.000 HD
ENDBRANCH 1241181
BRANCH 1261183
ATOM   1183  OP2 A   B  21       3.657 -18.566  36.423  0.00  0.00    +0.000 OA
ATOM   1184  H   A   B  21       4.022 -17.869  35.856  0.00  0.00    +0.000 HD
ENDBRANCH 1261183
BRANCH 1341185
ATOM   1185  O2' A   B  21      -1.541 -13.678  38.453  0.00  0.00    +0.000 OA
ATOM   1186  H   A   B  21      -2.114 -14.457  38.380  0.00  0.00    +0.000 HD
ENDBRANCH 1341185
BRANCH 1361187
ATOM   1187  OP2 C   B  22       1.636 -13.926  34.702  0.00  0.00    +0.000 OA
ATOM   1188  H   C   B  22       2.163 -13.361  34.116  0.00  0.00    +0.000 HD
ENDBRANCH 1361187
BRANCH 1441189
ATOM   1189  O2' C   B  22       0.817  -7.683  38.603  0.00  0.00    +0.000 OA
ATOM   1190  H   C   B  22      -0.091  -8.003  38.718  0.00  0.00    +0.000 HD
ENDBRANCH 1441189
BRANCH 1461191
ATOM   1191  OP2 U   B  23       2.200  -8.919  34.075  0.00  0.00    +0.000 OA
ATOM   1192  H   U   B  23       2.769  -8.636  33.342  0.00  0.00    +0.000 HD
ENDBRANCH 1461191
BRANCH 3861193
ATOM   1193  OP1 U   B  47      17.506  -2.978  11.123  0.00  0.00    +0.000 OA
ATOM   1194  H   U   B  47      17.944  -3.819  10.920  0.00  0.00    +0.000 HD
ENDBRANCH 3861193
BRANCH   51195
ATOM   1195  O2' A   B   9       6.386  -1.825  48.959  0.00  0.00    +0.000 OA
ATOM   1196  H   A   B   9       6.792  -2.411  48.301  0.00  0.00    +0.000 HD
ENDBRANCH   51195
BRANCH 3141197
ATOM   1197  O2' U   B  39      10.829  -7.722 -11.124  0.00  0.00    +0.000 OA
ATOM   1198  H   U   B  39      11.731  -7.997 -10.895  0.00  0.00    +0.000 HD
ENDBRANCH 3141197
BRANCH 2361199
ATOM   1199  OP2 A   B  32       0.342  -7.080   9.008  0.00  0.00    +0.000 OA
ATOM   1200  H   A   B  32       0.472  -6.405   8.323  0.00  0.00    +0.000 HD
ENDBRANCH 2361199
BRANCH 2441201
ATOM   1201  O2' A   B  32      -2.920  -1.585  12.748  0.00  0.00    +0.000 OA
ATOM   1202  H   A   B  32      -3.570  -2.265  12.986  0.00  0.00    +0.000 HD
ENDBRANCH 2441201
BRANCH 2461203
ATOM   1203  OP2 U   B  33      -1.614  -2.508   8.109  0.00  0.00    +0.000 OA
ATOM   1204  H   U   B  33      -1.330  -2.086   7.283  0.00  0.00    +0.000 HD
ENDBRANCH 2461203
BRANCH 2541205
ATOM   1205  O2' U   B  33      -0.331   4.058  11.328  0.00  0.00    +0.000 OA
ATOM   1206  H   U   B  33      -1.173   3.879  11.775  0.00  0.00    +0.000 HD
ENDBRANCH 2541205
BRANCH 2561207
ATOM   1207  OP1 A   B  34      -2.023   4.599   6.764  0.00  0.00    +0.000 OA
ATOM   1208  H   A   B  34      -1.751   4.771   5.849  0.00  0.00    +0.000 HD
ENDBRANCH 2561207
BRANCH 2641209
ATOM   1209  O2' A   B  34       4.478   7.285   8.599  0.00  0.00    +0.000 OA
ATOM   1210  H   A   B  34       3.774   7.654   9.155  0.00  0.00    +0.000 HD
ENDBRANCH 2641209
BRANCH 2661211
ATOM   1211  OP2 A   B  35       2.379   5.668   4.464  0.00  0.00    +0.000 OA
ATOM   1212  H   A   B  35       2.560   5.541   3.520  0.00  0.00    +0.000 HD
ENDBRANCH 2661211
BRANCH 2741213
ATOM   1213  O2' A   B  35       9.689   6.993   5.636  0.00  0.00    +0.000 OA
ATOM   1214  H   A   B  35       9.285   7.703   6.160  0.00  0.00    +0.000 HD
ENDBRANCH 2741213
BRANCH 2761215
ATOM   1215  OP2 U   B  36       7.112   6.747   1.412  0.00  0.00    +0.000 OA
ATOM   1216  H   U   B  36       7.228   6.491   0.484  0.00  0.00    +0.000 HD
ENDBRANCH 2761215
BRANCH 2841217
ATOM   1217  O2' U   B  36      13.545   3.062   2.072  0.00  0.00    +0.000 OA
ATOM   1218  H   U   B  36      13.749   3.767   2.706  0.00  0.00    +0.000 HD
ENDBRANCH 2841217
BRANCH 2861219
ATOM   1219  OP2 A   B  37      11.084   4.481  -1.590  0.00  0.00    +0.000 OA
ATOM   1220  H   A   B  37      10.982   4.270  -2.531  0.00  0.00    +0.000 HD
ENDBRANCH 2861219
BRANCH 2941221
ATOM   1221  O2' A   B  37      16.210  -0.757  -2.596  0.00  0.00    +0.000 OA
ATOM   1222  H   A   B  37      16.751  -0.231  -1.986  0.00  0.00    +0.000 HD
ENDBRANCH 2941221
BRANCH 2961223
ATOM   1223  OP2 U   B  38      13.373   2.278  -5.107  0.00  0.00    +0.000 OA
ATOM   1224  H   U   B  38      12.945   2.379  -5.972  0.00  0.00    +0.000 HD
ENDBRANCH 2961223
BRANCH 3041225
ATOM   1225  O2' U   B  38      15.023  -4.711  -7.092  0.00  0.00    +0.000 OA
ATOM   1226  H   U   B  38      15.865  -4.468  -6.677  0.00  0.00    +0.000 HD
ENDBRANCH 3041225
BRANCH 3061227
ATOM   1227  OP2 U   B  39      13.326  -0.858  -9.507  0.00  0.00    +0.000 OA
ATOM   1228  H   U   B  39      12.771  -0.629 -10.269  0.00  0.00    +0.000 HD
ENDBRANCH 3061227
BRANCH 1561229
ATOM   1229  OP2 U   B  24       5.107  -5.101  33.092  0.00  0.00    +0.000 OA
ATOM   1230  H   U   B  24       5.526  -5.130  32.218  0.00  0.00    +0.000 HD
ENDBRANCH 1561229
BRANCH 3161231
ATOM   1231  OP2 C   B  40      11.735  -3.513 -13.779  0.00  0.00    +0.000 OA
ATOM   1232  H   C   B  40      11.294  -3.022 -14.490  0.00  0.00    +0.000 HD
ENDBRANCH 3161231
BRANCH 3241233
ATOM   1233  O2' C   B  40       4.784  -3.906 -14.634  0.00  0.00    +0.000 OA
ATOM   1234  H   C   B  40       5.127  -3.012 -14.480  0.00  0.00    +0.000 HD
ENDBRANCH 3241233
BRANCH 3261235
ATOM   1235  OP1 U   B  41       5.229  -4.986  -9.976  0.00  0.00    +0.000 OA
ATOM   1236  H   U   B  41       4.344  -4.725 -10.276  0.00  0.00    +0.000 HD
ENDBRANCH 3261235
BRANCH 3341237
ATOM   1237  O2' U   B  41       1.520 -10.440 -11.419  0.00  0.00    +0.000 OA
ATOM   1238  H   U   B  41       1.134  -9.813 -12.051  0.00  0.00    +0.000 HD
ENDBRANCH 3341237
BRANCH 3361239
ATOM   1239  OP1 U   B  42       1.351  -7.605  -7.558  0.00  0.00    +0.000 OA
ATOM   1240  H   U   B  42       0.451  -7.773  -7.879  0.00  0.00    +0.000 HD
ENDBRANCH 3361239
BRANCH 3441241
ATOM   1241  O2' U   B  42       2.925 -15.067  -7.002  0.00  0.00    +0.000 OA
ATOM   1242  H   U   B  42       2.097 -14.774  -7.414  0.00  0.00    +0.000 HD
ENDBRANCH 3441241
BRANCH 3461243
ATOM   1243  OP1 A   B  43       1.872 -13.305  -2.578  0.00  0.00    +0.000 OA
ATOM   1244  H   A   B  43       0.916 -13.260  -2.738  0.00  0.00    +0.000 HD
ENDBRANCH 3461243
BRANCH 3541245
ATOM   1245  O2' A   B  43       9.219 -13.404  -3.473  0.00  0.00    +0.000 OA
ATOM   1246  H   A   B  43       8.809 -14.184  -3.879  0.00  0.00    +0.000 HD
ENDBRANCH 3541245
BRANCH 3561247
ATOM   1247  OP1 C   B  44       7.551 -13.991   1.083  0.00  0.00    +0.000 OA
ATOM   1248  H   C   B  44       8.439 -14.335   0.897  0.00  0.00    +0.000 HD
ENDBRANCH 3561247
BRANCH 3641249
ATOM   1249  O2' C   B  44      12.266  -8.525  -0.455  0.00  0.00    +0.000 OA
ATOM   1250  H   C   B  44      12.557  -9.333  -0.905  0.00  0.00    +0.000 HD
ENDBRANCH 3641249
BRANCH 3741251
ATOM   1251  O2' U   B  45      16.195  -4.621   2.770  0.00  0.00    +0.000 OA
ATOM   1252  H   U   B  45      16.452  -5.269   2.095  0.00  0.00    +0.000 HD
ENDBRANCH 3741251
BRANCH 3761253
ATOM   1253  OP1 U   B  46      16.414  -7.555   6.611  0.00  0.00    +0.000 OA
ATOM   1254  H   U   B  46      16.346  -8.490   6.363  0.00  0.00    +0.000 HD
ENDBRANCH 3761253
BRANCH 3841255
ATOM   1255  O2' U   B  46      16.314  -0.287   7.305  0.00  0.00    +0.000 OA
ATOM   1256  H   U   B  46      17.002  -0.566   6.681  0.00  0.00    +0.000 HD
ENDBRANCH 3841255
BRANCH 3941257
ATOM   1257  O2' U   B  47      13.902   3.340  11.572  0.00  0.00    +0.000 OA
ATOM   1258  H   U   B  47      14.721   3.447  11.063  0.00  0.00    +0.000 HD
ENDBRANCH 3941257
BRANCH 2261259
ATOM   1259  OP2 A   B  31       4.210 -10.587  10.173  0.00  0.00    +0.000 OA
ATOM   1260  H   A   B  31       4.148  -9.850   9.546  0.00  0.00    +0.000 HD
ENDBRANCH 2261259
BRANCH 1741261
ATOM   1261  O2' U   B  25      16.497  -5.898  31.485  0.00  0.00    +0.000 OA
ATOM   1262  H   U   B  25      16.581  -5.223  32.177  0.00  0.00    +0.000 HD
ENDBRANCH 1741261
BRANCH 1761263
ATOM   1263  OP2 U   B  26      13.584  -4.136  28.013  0.00  0.00    +0.000 OA
ATOM   1264  H   U   B  26      13.433  -4.192  27.057  0.00  0.00    +0.000 HD
ENDBRANCH 1761263
BRANCH 1841265
ATOM   1265  O2' U   B  26      18.182  -9.818  26.697  0.00  0.00    +0.000 OA
ATOM   1266  H   U   B  26      18.746  -9.363  27.342  0.00  0.00    +0.000 HD
ENDBRANCH 1841265
BRANCH 1861267
ATOM   1267  OP2 U   B  27      15.934  -6.465  23.996  0.00  0.00    +0.000 OA
ATOM   1268  H   U   B  27      15.581  -6.328  23.103  0.00  0.00    +0.000 HD
ENDBRANCH 1861267
BRANCH 1941269
ATOM   1269  O2' U   B  27      16.612 -13.573  21.917  0.00  0.00    +0.000 OA
ATOM   1270  H   U   B  27      17.450 -13.509  22.401  0.00  0.00    +0.000 HD
ENDBRANCH 1941269
BRANCH 1661271
ATOM   1271  OP2 U   B  25       9.513  -3.413  31.096  0.00  0.00    +0.000 OA
ATOM   1272  H   U   B  25       9.658  -3.559  30.148  0.00  0.00    +0.000 HD
ENDBRANCH 1661271
BRANCH 1961273
ATOM   1273  OP2 U   B  28      15.899  -9.382  19.559  0.00  0.00    +0.000 OA
ATOM   1274  H   U   B  28      15.494  -9.025  18.753  0.00  0.00    +0.000 HD
ENDBRANCH 1961273
BRANCH 1641275
ATOM   1275  O2' U   B  24      11.932  -3.229  35.365  0.00  0.00    +0.000 OA
ATOM   1276  H   U   B  24      11.443  -2.616  35.936  0.00  0.00    +0.000 HD
ENDBRANCH 1641275
BRANCH 2041277
ATOM   1277  O2' U   B  28      12.422 -15.742  17.850  0.00  0.00    +0.000 OA
ATOM   1278  H   U   B  28      13.270 -16.127  18.122  0.00  0.00    +0.000 HD
ENDBRANCH 2041277
BRANCH 2061279
ATOM   1279  OP2 A   B  29      13.234 -11.621  15.457  0.00  0.00    +0.000 OA
ATOM   1280  H   A   B  29      12.852 -11.078  14.750  0.00  0.00    +0.000 HD
ENDBRANCH 2061279
BRANCH 1541281
ATOM   1281  O2' U   B  23       5.873  -3.637  37.741  0.00  0.00    +0.000 OA
ATOM   1282  H   U   B  23       4.999  -3.422  38.101  0.00  0.00    +0.000 HD
ENDBRANCH 1541281
BRANCH 2141283
ATOM   1283  O2' A   B  29       6.921 -15.543  15.055  0.00  0.00    +0.000 OA
ATOM   1284  H   A   B  29       7.528 -16.294  15.143  0.00  0.00    +0.000 HD
ENDBRANCH 2141283
BRANCH 2161285
ATOM   1285  OP2 A   B  30       8.958 -12.183  12.255  0.00  0.00    +0.000 OA
ATOM   1286  H   A   B  30       8.715 -11.495  11.616  0.00  0.00    +0.000 HD
ENDBRANCH 2161285
BRANCH 2341287
ATOM   1287  O2' A   B  31      -1.965  -7.760  13.188  0.00  0.00    +0.000 OA
ATOM   1288  H   A   B  31      -2.217  -8.694  13.263  0.00  0.00    +0.000 HD
ENDBRANCH 2341287
BRANCH 2241289
ATOM   1289  O2' A   B  30       1.669 -12.696  13.667  0.00  0.00    +0.000 OA
ATOM   1290  H   A   B  30       1.869 -13.645  13.688  0.00  0.00    +0.000 HD
ENDBRANCH 2241289
BRANCH   11291
ATOM   1291  C5' A   B   9       4.433   1.663  46.517  0.00  0.00    +0.000 C 
BRANCH12911292
ATOM   1292  O5' A   B   9       4.476   2.176  47.839  0.00  0.00    +0.000 OA
BRANCH12921293
ATOM   1293  P   A   B   9       4.649   3.740  48.053  0.00  0.00    +0.000 P 
ATOM   1294  OP2 A   B   9       3.615   4.418  47.221  0.00  0.00    +0.000 OA
BRANCH12931295
ATOM   1295  OP1 A   B   9       6.085   4.090  47.874  0.00  0.00    +0.000 OA
ATOM   1296  H   A   B   9       6.343   3.937  46.951  0.00  0.00    +0.000 HD
ENDBRANCH12931295
BRANCH12931297
ATOM   1297  O3' U   B   8       4.299   4.008  49.552  0.00  0.00    +0.000 OA
BRANCH12971300
ATOM   1298  C4' U   B   8       3.151   3.008  51.435  0.00  0.00    +0.000 C 
ATOM   1299  O4' U   B   8       3.602   2.384  52.663  0.00  0.00    +0.000 OA
ATOM   1300  C3' U   B   8       4.379   3.002  50.551  0.00  0.00    +0.000 C 
ATOM   1301  C2' U   B   8       5.511   3.233  51.541  0.00  0.00    +0.000 C 
ATOM   1302  C1' U   B   8       5.004   2.491  52.776  0.00  0.00    +0.000 C 
BRANCH13021303
ATOM   1303  N1  U   B   8       5.577   1.136  52.919  0.00  0.00    +0.000 N 
ATOM   1304  C2  U   B   8       6.803   1.027  53.546  0.00  0.00    +0.000 A 
ATOM   1305  O2  U   B   8       7.415   1.991  53.970  0.00  0.00    +0.000 OA
ATOM   1306  N3  U   B   8       7.291  -0.254  53.654  0.00  0.00    +0.000 N 
ATOM   1307  C4  U   B   8       6.689  -1.415  53.214  0.00  0.00    +0.000 A 
ATOM   1308  O4  U   B   8       7.255  -2.492  53.388  0.00  0.00    +0.000 OA
ATOM   1309  C5  U   B   8       5.424  -1.218  52.583  0.00  0.00    +0.000 A 
ATOM   1310  C6  U   B   8       4.923   0.021  52.461  0.00  0.00    +0.000 A 
ATOM   1311  H   U   B   8       8.166  -0.354  54.094  0.00  0.00    +0.000 HD
ENDBRANCH13021303
BRANCH13011312
ATOM   1312  O2' U   B   8       5.653   4.608  51.860  0.00  0.00    +0.000 OA
ATOM   1313  H   U   B   8       4.812   4.949  52.204  0.00  0.00    +0.000 HD
ENDBRANCH13011312
BRANCH12981314
ATOM   1314  C5' U   B   8       1.945   2.264  50.899  0.00  0.00    +0.000 C 
BRANCH13141315
ATOM   1315  O5' U   B   8       2.233   0.883  50.727  0.00  0.00    +0.000 OA
BRANCH13151316
ATOM   1316  P   U   B   8       1.061  -0.178  50.518  0.00  0.00    +0.000 P 
ATOM   1317  OP1 U   B   8       0.216   0.264  49.381  0.00  0.00    +0.000 OA
BRANCH13161318
ATOM   1318  OP2 U   B   8       1.673  -1.536  50.490  0.00  0.00    +0.000 OA
ATOM   1319  H   U   B   8       2.204  -1.635  49.684  0.00  0.00    +0.000 HD
ENDBRANCH13161318
BRANCH13161320
ATOM   1320  O3' C   B   7       0.193  -0.035  51.850  0.00  0.00    +0.000 OA
BRANCH13201323
ATOM   1321  C4' C   B   7      -0.416  -1.003  54.004  0.00  0.00    +0.000 C 
ATOM   1322  O4' C   B   7       0.209  -1.003  55.316  0.00  0.00    +0.000 OA
ATOM   1323  C3' C   B   7       0.689  -0.537  53.083  0.00  0.00    +0.000 C 
ATOM   1324  C2' C   B   7       1.377   0.519  53.933  0.00  0.00    +0.000 C 
ATOM   1325  C1' C   B   7       1.313  -0.118  55.317  0.00  0.00    +0.000 C 
BRANCH13251326
ATOM   1326  N1  C   B   7       2.537  -0.878  55.646  0.00  0.00    +0.000 N 
ATOM   1327  C2  C   B   7       3.643  -0.173  56.137  0.00  0.00    +0.000 A 
ATOM   1328  O2  C   B   7       3.557   1.052  56.285  0.00  0.00    +0.000 OA
ATOM   1329  N3  C   B   7       4.779  -0.853  56.442  0.00  0.00    +0.000 NA
ATOM   1330  C4  C   B   7       4.838  -2.174  56.271  0.00  0.00    +0.000 A 
ATOM   1331  N4  C   B   7       5.974  -2.796  56.586  0.00  0.00    +0.000 N 
ATOM   1332  C5  C   B   7       3.729  -2.908  55.774  0.00  0.00    +0.000 A 
ATOM   1333  C6  C   B   7       2.611  -2.230  55.480  0.00  0.00    +0.000 A 
ATOM   1334  H   C   B   7       6.050  -3.771  56.471  0.00  0.00    +0.000 HD
ATOM   1335  H   C   B   7       6.737  -2.281  56.933  0.00  0.00    +0.000 HD
ENDBRANCH13251326
BRANCH13241336
ATOM   1336  O2' C   B   7       0.653   1.732  53.952  0.00  0.00    +0.000 OA
ATOM   1337  H   C   B   7      -0.249   1.565  54.266  0.00  0.00    +0.000 HD
ENDBRANCH13241336
BRANCH13211338
ATOM   1338  C5' C   B   7      -0.992  -2.367  53.716  0.00  0.00    +0.000 C 
BRANCH13381339
ATOM   1339  O5' C   B   7       0.005  -3.375  53.803  0.00  0.00    +0.000 OA
BRANCH13391340
ATOM   1340  P   C   B   7      -0.395  -4.903  53.999  0.00  0.00    +0.000 P 
ATOM   1341  OP1 C   B   7      -1.367  -5.275  52.937  0.00  0.00    +0.000 OA
BRANCH13401342
ATOM   1342  OP2 C   B   7       0.857  -5.686  54.155  0.00  0.00    +0.000 OA
ATOM   1343  H   C   B   7       1.337  -5.700  53.312  0.00  0.00    +0.000 HD
ENDBRANCH13401342
BRANCH13401344
ATOM   1344  O3' A   B   6      -1.174  -4.896  55.415  0.00  0.00    +0.000 OA
BRANCH13441347
ATOM   1345  C4' A   B   6      -1.156  -5.633  57.743  0.00  0.00    +0.000 C 
ATOM   1346  O4' A   B   6      -0.558  -5.106  58.953  0.00  0.00    +0.000 OA
ATOM   1347  C3' A   B   6      -0.450  -4.877  56.636  0.00  0.00    +0.000 C 
ATOM   1348  C2' A   B   6      -0.313  -3.489  57.242  0.00  0.00    +0.000 C 
ATOM   1349  C1' A   B   6      -0.007  -3.830  58.697  0.00  0.00    +0.000 C 
BRANCH13491350
ATOM   1350  N9  A   B   6       1.440  -3.882  58.959  0.00  0.00    +0.000 N 
ATOM   1351  C8  A   B   6       2.263  -4.978  58.969  0.00  0.00    +0.000 A 
ATOM   1352  N7  A   B   6       3.515  -4.698  59.236  0.00  0.00    +0.000 NA
ATOM   1353  C5  A   B   6       3.515  -3.321  59.410  0.00  0.00    +0.000 A 
ATOM   1354  C6  A   B   6       4.540  -2.406  59.717  0.00  0.00    +0.000 A 
ATOM   1355  N6  A   B   6       5.818  -2.759  59.906  0.00  0.00    +0.000 N 
ATOM   1356  N1  A   B   6       4.207  -1.104  59.822  0.00  0.00    +0.000 NA
ATOM   1357  C2  A   B   6       2.927  -0.753  59.634  0.00  0.00    +0.000 A 
ATOM   1358  N3  A   B   6       1.878  -1.519  59.343  0.00  0.00    +0.000 NA
ATOM   1359  C4  A   B   6       2.248  -2.807  59.242  0.00  0.00    +0.000 A 
ATOM   1360  H   A   B   6       6.083  -3.704  59.834  0.00  0.00    +0.000 HD
ATOM   1361  H   A   B   6       6.492  -2.073  60.117  0.00  0.00    +0.000 HD
ENDBRANCH13491350
BRANCH13481362
ATOM   1362  O2' A   B   6      -1.528  -2.768  57.182  0.00  0.00    +0.000 OA
ATOM   1363  H   A   B   6      -2.228  -3.276  57.622  0.00  0.00    +0.000 HD
ENDBRANCH13481362
BRANCH13451364
ATOM   1364  C5' A   B   6      -1.014  -7.134  57.710  0.00  0.00    +0.000 C 
BRANCH13641365
ATOM   1365  O5' A   B   6       0.352  -7.517  57.613  0.00  0.00    +0.000 OA
BRANCH13651366
ATOM   1366  P   A   B   6       0.779  -9.045  57.762  0.00  0.00    +0.000 P 
ATOM   1367  OP1 A   B   6      -0.081  -9.863  56.871  0.00  0.00    +0.000 OA
BRANCH13661368
ATOM   1368  OP2 A   B   6       2.258  -9.118  57.632  0.00  0.00    +0.000 OA
ATOM   1369  H   A   B   6       2.513  -8.910  56.720  0.00  0.00    +0.000 HD
ENDBRANCH13661368
BRANCH13661370
ATOM   1370  O3' U   B   5       0.371  -9.389  59.265  0.00  0.00    +0.000 OA
BRANCH13701373
ATOM   1371  C4' U   B   5       1.221  -9.867  61.502  0.00  0.00    +0.000 C 
ATOM   1372  O4' U   B   5       1.650  -9.036  62.613  0.00  0.00    +0.000 OA
ATOM   1373  C3' U   B   5       1.178  -8.908  60.335  0.00  0.00    +0.000 C 
ATOM   1374  C2' U   B   5       0.634  -7.642  60.985  0.00  0.00    +0.000 C 
ATOM   1375  C1' U   B   5       1.340  -7.682  62.343  0.00  0.00    +0.000 C 
BRANCH13751376
ATOM   1376  N1  U   B   5       2.589  -6.891  62.345  0.00  0.00    +0.000 N 
ATOM   1377  C2  U   B   5       2.477  -5.529  62.580  0.00  0.00    +0.000 A 
ATOM   1378  O2  U   B   5       1.404  -4.976  62.782  0.00  0.00    +0.000 OA
ATOM   1379  N3  U   B   5       3.667  -4.838  62.570  0.00  0.00    +0.000 N 
ATOM   1380  C4  U   B   5       4.931  -5.354  62.352  0.00  0.00    +0.000 A 
ATOM   1381  O4  U   B   5       5.902  -4.605  62.373  0.00  0.00    +0.000 OA
ATOM   1382  C5  U   B   5       4.958  -6.765  62.119  0.00  0.00    +0.000 A 
ATOM   1383  C6  U   B   5       3.815  -7.468  62.123  0.00  0.00    +0.000 A 
ATOM   1384  H   U   B   5       3.612  -3.869  62.736  0.00  0.00    +0.000 HD
ENDBRANCH13751376
BRANCH13741385
ATOM   1385  O2' U   B   5      -0.762  -7.717  61.189  0.00  0.00    +0.000 OA
ATOM   1386  H   U   B   5      -0.970  -8.503  61.718  0.00  0.00    +0.000 HD
ENDBRANCH13741385
BRANCH13711387
ATOM   1387  C5' U   B   5       2.145 -11.051  61.348  0.00  0.00    +0.000 C 
BRANCH13871388
ATOM   1388  O5' U   B   5       3.447 -10.647  60.945  0.00  0.00    +0.000 OA
BRANCH13881389
ATOM   1389  P   U   B   5       4.620 -11.715  60.775  0.00  0.00    +0.000 P 
ATOM   1390  OP1 U   B   5       4.126 -12.829  59.928  0.00  0.00    +0.000 OA
BRANCH13891391
ATOM   1391  OP2 U   B   5       5.856 -10.981  60.384  0.00  0.00    +0.000 OA
ATOM   1392  H   U   B   5       5.751 -10.626  59.488  0.00  0.00    +0.000 HD
ENDBRANCH13891391
BRANCH13891393
ATOM   1393  O3' A   B   4       4.812 -12.293  62.254  0.00  0.00    +0.000 OA
BRANCH13931396
ATOM   1394  C4' A   B   4       6.155 -12.407  64.287  0.00  0.00    +0.000 C 
ATOM   1395  O4' A   B   4       6.371 -11.489  65.389  0.00  0.00    +0.000 OA
ATOM   1396  C3' A   B   4       5.534 -11.536  63.214  0.00  0.00    +0.000 C 
ATOM   1397  C2' A   B   4       4.658 -10.600  64.027  0.00  0.00    +0.000 C 
ATOM   1398  C1' A   B   4       5.550 -10.346  65.235  0.00  0.00    +0.000 C 
BRANCH13981399
ATOM   1399  N9  A   B   4       6.416  -9.173  65.040  0.00  0.00    +0.000 N 
ATOM   1400  C8  A   B   4       7.716  -9.149  64.600  0.00  0.00    +0.000 A 
ATOM   1401  N7  A   B   4       8.222  -7.943  64.525  0.00  0.00    +0.000 NA
ATOM   1402  C5  A   B   4       7.186  -7.119  64.940  0.00  0.00    +0.000 A 
ATOM   1403  C6  A   B   4       7.086  -5.725  65.087  0.00  0.00    +0.000 A 
ATOM   1404  N1  A   B   4       5.915  -5.222  65.524  0.00  0.00    +0.000 NA
ATOM   1405  C2  A   B   4       4.916  -6.072  65.795  0.00  0.00    +0.000 A 
ATOM   1406  N3  A   B   4       4.888  -7.397  65.699  0.00  0.00    +0.000 NA
ATOM   1407  C4  A   B   4       6.071  -7.862  65.258  0.00  0.00    +0.000 A 
BRANCH14031408
ATOM   1408  N6  A   B   4       8.086  -4.878  64.809  0.00  0.00    +0.000 N 
ATOM   1409  H   A   B   4       8.950  -5.225  64.488  0.00  0.00    +0.000 HD
ATOM   1410  H   A   B   4       7.957  -3.909  64.925  0.00  0.00    +0.000 HD
ENDBRANCH14031408
ENDBRANCH13981399
BRANCH13971411
ATOM   1411  O2' A   B   4       3.468 -11.235  64.456  0.00  0.00    +0.000 OA
ATOM   1412  H   A   B   4       3.691 -12.035  64.957  0.00  0.00    +0.000 HD
ENDBRANCH13971411
BRANCH13941413
ATOM   1413  C5' A   B   4       7.459 -13.073  63.922  0.00  0.00    +0.000 C 
BRANCH14131414
ATOM   1414  O5' A   B   4       8.439 -12.108  63.541  0.00  0.00    +0.000 OA
BRANCH14141415
ATOM   1415  P   A   B   4       9.984 -12.492  63.491  0.00  0.00    +0.000 P 
ATOM   1416  OP1 A   B   4      10.132 -13.751  62.716  0.00  0.00    +0.000 OA
BRANCH14151417
ATOM   1417  OP2 A   B   4      10.742 -11.278  63.076  0.00  0.00    +0.000 OA
ATOM   1418  H   A   B   4      10.539 -11.071  62.150  0.00  0.00    +0.000 HD
ENDBRANCH14151417
BRANCH14151419
ATOM   1419  O3' A   B   3      10.331 -12.814  65.011  0.00  0.00    +0.000 OA
BRANCH14191422
ATOM   1420  C4' A   B   3      11.595 -12.099  66.967  0.00  0.00    +0.000 C 
ATOM   1421  O4' A   B   3      11.304 -11.208  68.072  0.00  0.00    +0.000 OA
ATOM   1422  C3' A   B   3      10.539 -11.753  65.939  0.00  0.00    +0.000 C 
ATOM   1423  C2' A   B   3       9.321 -11.462  66.803  0.00  0.00    +0.000 C 
ATOM   1424  C1' A   B   3       9.964 -10.757  67.994  0.00  0.00    +0.000 C 
BRANCH14241425
ATOM   1425  N9  A   B   3       9.967  -9.294  67.848  0.00  0.00    +0.000 N 
ATOM   1426  C8  A   B   3      10.990  -8.489  67.417  0.00  0.00    +0.000 A 
ATOM   1427  N7  A   B   3      10.687  -7.215  67.401  0.00  0.00    +0.000 NA
ATOM   1428  C5  A   B   3       9.375  -7.179  67.852  0.00  0.00    +0.000 A 
ATOM   1429  C6  A   B   3       8.475  -6.118  68.068  0.00  0.00    +0.000 A 
ATOM   1430  N1  A   B   3       7.244  -6.422  68.525  0.00  0.00    +0.000 NA
ATOM   1431  C2  A   B   3       6.944  -7.709  68.750  0.00  0.00    +0.000 A 
ATOM   1432  N3  A   B   3       7.701  -8.789  68.589  0.00  0.00    +0.000 NA
ATOM   1433  C4  A   B   3       8.921  -8.448  68.130  0.00  0.00    +0.000 A 
BRANCH14291434
ATOM   1434  N6  A   B   3       8.777  -4.833  67.839  0.00  0.00    +0.000 N 
ATOM   1435  H   A   B   3       9.670  -4.589  67.505  0.00  0.00    +0.000 HD
ATOM   1436  H   A   B   3       8.105  -4.132  68.005  0.00  0.00    +0.000 HD
ENDBRANCH14291434
ENDBRANCH14241425
BRANCH14231437
ATOM   1437  O2' A   B   3       8.702 -12.658  67.252  0.00  0.00    +0.000 OA
ATOM   1438  H   A   B   3       9.352 -13.200  67.726  0.00  0.00    +0.000 HD
ENDBRANCH14231437
BRANCH14201439
ATOM   1439  C5' A   B   3      13.029 -11.915  66.530  0.00  0.00    +0.000 C 
BRANCH14391440
ATOM   1440  O5' A   B   3      13.265 -10.576  66.089  0.00  0.00    +0.000 OA
BRANCH14401441
ATOM   1441  P   A   B   3      14.749 -10.047  65.848  0.00  0.00    +0.000 P 
ATOM   1442  OP1 A   B   3      15.473 -11.036  65.006  0.00  0.00    +0.000 OA
BRANCH14411443
ATOM   1443  OP2 A   B   3      14.663  -8.628  65.409  0.00  0.00    +0.000 OA
ATOM   1444  H   A   B   3      14.279  -8.588  64.519  0.00  0.00    +0.000 HD
ENDBRANCH14411443
BRANCH14411445
ATOM   1445  O3' U   B   2      15.385 -10.095  67.319  0.00  0.00    +0.000 OA
BRANCH14451448
ATOM   1446  C4' U   B   2      16.214  -8.765  69.189  0.00  0.00    +0.000 C 
ATOM   1447  O4' U   B   2      15.584  -8.156  70.346  0.00  0.00    +0.000 OA
ATOM   1448  C3' U   B   2      15.055  -9.083  68.273  0.00  0.00    +0.000 C 
ATOM   1449  C2' U   B   2      13.970  -9.508  69.255  0.00  0.00    +0.000 C 
ATOM   1450  C1' U   B   2      14.223  -8.539  70.410  0.00  0.00    +0.000 C 
BRANCH14501451
ATOM   1451  N1  U   B   2      13.376  -7.330  70.328  0.00  0.00    +0.000 N 
ATOM   1452  C2  U   B   2      12.061  -7.437  70.751  0.00  0.00    +0.000 A 
ATOM   1453  O2  U   B   2      11.581  -8.479  71.178  0.00  0.00    +0.000 OA
ATOM   1454  N3  U   B   2      11.320  -6.279  70.659  0.00  0.00    +0.000 N 
ATOM   1455  C4  U   B   2      11.753  -5.051  70.195  0.00  0.00    +0.000 A 
ATOM   1456  O4  U   B   2      10.973  -4.104  70.174  0.00  0.00    +0.000 OA
ATOM   1457  C5  U   B   2      13.121  -5.024  69.779  0.00  0.00    +0.000 A 
ATOM   1458  C6  U   B   2      13.869  -6.135  69.859  0.00  0.00    +0.000 A 
ATOM   1459  H   U   B   2      10.383  -6.332  70.955  0.00  0.00    +0.000 HD
ENDBRANCH14501451
BRANCH14491460
ATOM   1460  O2' U   B   2      14.167 -10.836  69.712  0.00  0.00    +0.000 OA
ATOM   1461  H   U   B   2      15.050 -10.915  70.105  0.00  0.00    +0.000 HD
ENDBRANCH14491460
BRANCH14461462
ATOM   1462  C5' U   B   2      17.261  -7.832  68.623  0.00  0.00    +0.000 C 
BRANCH14621463
ATOM   1463  O5' U   B   2      16.665  -6.650  68.094  0.00  0.00    +0.000 OA
BRANCH14631464
ATOM   1464  P   U   B   2      17.554  -5.500  67.435  0.00  0.00    +0.000 P 
ATOM   1465  OP1 U   B   2      18.515  -6.125  66.492  0.00  0.00    +0.000 OA
BRANCH14641466
ATOM   1466  OP2 U   B   2      16.641  -4.429  66.957  0.00  0.00    +0.000 OA
ATOM   1467  H   U   B   2      16.126  -4.756  66.203  0.00  0.00    +0.000 HD
ENDBRANCH14641466
BRANCH14641468
ATOM   1468  O3' C   B   1      18.425  -4.942  68.714  0.00  0.00    +0.000 OA
BRANCH14681471
ATOM   1469  C4' C   B   1      18.710  -3.056  70.225  0.00  0.00    +0.000 C 
ATOM   1470  O4' C   B   1      18.141  -2.704  71.514  0.00  0.00    +0.000 OA
ATOM   1471  C3' C   B   1      17.784  -4.130  69.695  0.00  0.00    +0.000 C 
ATOM   1472  C2' C   B   1      17.408  -4.882  70.954  0.00  0.00    +0.000 C 
ATOM   1473  C1' C   B   1      17.308  -3.749  71.970  0.00  0.00    +0.000 C 
BRANCH14731474
ATOM   1474  N1  C   B   1      15.933  -3.236  72.145  0.00  0.00    +0.000 N 
ATOM   1475  C2  C   B   1      15.013  -3.997  72.862  0.00  0.00    +0.000 A 
ATOM   1476  O2  C   B   1      15.368  -5.092  73.341  0.00  0.00    +0.000 OA
ATOM   1477  N3  C   B   1      13.751  -3.530  73.034  0.00  0.00    +0.000 NA
ATOM   1478  C4  C   B   1      13.401  -2.354  72.511  0.00  0.00    +0.000 A 
ATOM   1479  N4  C   B   1      12.156  -1.931  72.713  0.00  0.00    +0.000 N 
ATOM   1480  C5  C   B   1      14.317  -1.558  71.774  0.00  0.00    +0.000 A 
ATOM   1481  C6  C   B   1      15.560  -2.033  71.617  0.00  0.00    +0.000 A 
ATOM   1482  H   C   B   1      11.863  -1.068  72.342  0.00  0.00    +0.000 HD
ATOM   1483  H   C   B   1      11.528  -2.481  73.234  0.00  0.00    +0.000 HD
ENDBRANCH14731474
BRANCH14721484
ATOM   1484  O2' C   B   1      18.434  -5.770  71.335  0.00  0.00    +0.000 OA
ATOM   1485  H   C   B   1      19.264  -5.279  71.441  0.00  0.00    +0.000 HD
ENDBRANCH14721484
BRANCH14691486
ATOM   1486  C5' C   B   1      18.825  -1.821  69.372  0.00  0.00    +0.000 C 
BRANCH14861487
ATOM   1487  O5' C   B   1      17.542  -1.298  69.071  0.00  0.00    +0.000 OA
ATOM   1488  H   C   B   1      17.637  -0.504  68.522  0.00  0.00    +0.000 HD
ENDBRANCH14861487
ENDBRANCH14691486
ENDBRANCH14681471
ENDBRANCH14641468
ENDBRANCH14631464
ENDBRANCH14621463
ENDBRANCH14461462
ENDBRANCH14451448
ENDBRANCH14411445
ENDBRANCH14401441
ENDBRANCH14391440
ENDBRANCH14201439
ENDBRANCH14191422
ENDBRANCH14151419
ENDBRANCH14141415
ENDBRANCH14131414
ENDBRANCH13941413
ENDBRANCH13931396
ENDBRANCH13891393
ENDBRANCH13881389
ENDBRANCH13871388
ENDBRANCH13711387
ENDBRANCH13701373
ENDBRANCH13661370
ENDBRANCH13651366
ENDBRANCH13641365
ENDBRANCH13451364
ENDBRANCH13441347
ENDBRANCH13401344
ENDBRANCH13391340
ENDBRANCH13381339
ENDBRANCH13211338
ENDBRANCH13201323
ENDBRANCH13161320
ENDBRANCH13151316
ENDBRANCH13141315
ENDBRANCH12981314
ENDBRANCH12971300
ENDBRANCH12931297
ENDBRANCH12921293
ENDBRANCH12911292
ENDBRANCH   11291
BRANCH 5321489
ATOM   1489  O3' A   B  61      14.244  -7.375  52.991  0.00  0.00    +0.000 OA
BRANCH14891490
ATOM   1490  P   C   B  62      13.660  -6.795  54.335  0.00  0.00    +0.000 P 
ATOM   1491  OP2 C   B  62      12.304  -6.254  54.052  0.00  0.00    +0.000 OA
BRANCH14901492
ATOM   1492  OP1 C   B  62      13.830  -7.823  55.391  0.00  0.00    +0.000 OA
ATOM   1493  H   C   B  62      13.255  -8.581  55.200  0.00  0.00    +0.000 HD
ENDBRANCH14901492
BRANCH14901494
ATOM   1494  O5' C   B  62      14.615  -5.571  54.679  0.00  0.00    +0.000 OA
BRANCH14941495
ATOM   1495  C5' C   B  62      16.004  -5.766  54.945  0.00  0.00    +0.000 C 
BRANCH14951496
ATOM   1496  C4' C   B  62      16.748  -4.456  54.945  0.00  0.00    +0.000 C 
ATOM   1497  O4' C   B  62      16.604  -3.803  53.654  0.00  0.00    +0.000 OA
ATOM   1498  C3' C   B  62      16.251  -3.422  55.930  0.00  0.00    +0.000 C 
ATOM   1499  C2' C   B  62      16.764  -2.122  55.312  0.00  0.00    +0.000 C 
ATOM   1500  C1' C   B  62      16.569  -2.398  53.823  0.00  0.00    +0.000 C 
BRANCH15001501
ATOM   1501  N1  C   B  62      15.277  -1.878  53.310  0.00  0.00    +0.000 N 
ATOM   1502  C2  C   B  62      15.176  -0.517  52.994  0.00  0.00    +0.000 A 
ATOM   1503  O2  C   B  62      16.164   0.215  53.150  0.00  0.00    +0.000 OA
ATOM   1504  N3  C   B  62      13.996  -0.033  52.523  0.00  0.00    +0.000 NA
ATOM   1505  C4  C   B  62      12.951  -0.846  52.365  0.00  0.00    +0.000 A 
ATOM   1506  N4  C   B  62      11.812  -0.324  51.901  0.00  0.00    +0.000 N 
ATOM   1507  C5  C   B  62      13.029  -2.230  52.679  0.00  0.00    +0.000 A 
ATOM   1508  C6  C   B  62      14.199  -2.700  53.142  0.00  0.00    +0.000 A 
ATOM   1509  H   C   B  62      11.762   0.635  51.685  0.00  0.00    +0.000 HD
ATOM   1510  H   C   B  62      11.022  -0.899  51.775  0.00  0.00    +0.000 HD
ENDBRANCH15001501
BRANCH14991511
ATOM   1511  O2' C   B  62      18.141  -1.924  55.566  0.00  0.00    +0.000 OA
ATOM   1512  H   C   B  62      18.643  -2.687  55.239  0.00  0.00    +0.000 HD
ENDBRANCH14991511
BRANCH14981513
ATOM   1513  O3' C   B  62      16.741  -3.652  57.245  0.00  0.00    +0.000 OA
BRANCH15131514
ATOM   1514  P   U   B  63      15.801  -3.372  58.501  0.00  0.00    +0.000 P 
ATOM   1515  OP2 U   B  63      14.427  -3.837  58.181  0.00  0.00    +0.000 OA
BRANCH15141516
ATOM   1516  OP1 U   B  63      16.492  -3.896  59.700  0.00  0.00    +0.000 OA
ATOM   1517  H   U   B  63      16.518  -4.865  59.660  0.00  0.00    +0.000 HD
ENDBRANCH15141516
BRANCH15141518
ATOM   1518  O5' U   B  63      15.773  -1.778  58.594  0.00  0.00    +0.000 OA
BRANCH15181519
ATOM   1519  C5' U   B  63      16.952  -1.031  58.862  0.00  0.00    +0.000 C 
BRANCH15191520
ATOM   1520  C4' U   B  63      16.767   0.431  58.525  0.00  0.00    +0.000 C 
ATOM   1521  O4' U   B  63      16.423   0.575  57.121  0.00  0.00    +0.000 OA
ATOM   1522  C3' U   B  63      15.640   1.135  59.245  0.00  0.00    +0.000 C 
ATOM   1523  C2' U   B  63      15.358   2.314  58.319  0.00  0.00    +0.000 C 
ATOM   1524  C1' U   B  63      15.543   1.671  56.947  0.00  0.00    +0.000 C 
BRANCH15241525
ATOM   1525  N1  U   B  63      14.264   1.182  56.379  0.00  0.00    +0.000 N 
ATOM   1526  C2  U   B  63      13.443   2.111  55.755  0.00  0.00    +0.000 A 
ATOM   1527  O2  U   B  63      13.733   3.294  55.664  0.00  0.00    +0.000 OA
ATOM   1528  N3  U   B  63      12.270   1.604  55.245  0.00  0.00    +0.000 N 
ATOM   1529  C4  U   B  63      11.841   0.291  55.290  0.00  0.00    +0.000 A 
ATOM   1530  O4  U   B  63      10.759  -0.013  54.788  0.00  0.00    +0.000 OA
ATOM   1531  C5  U   B  63      12.743  -0.602  55.946  0.00  0.00    +0.000 A 
ATOM   1532  C6  U   B  63      13.896  -0.138  56.454  0.00  0.00    +0.000 A 
ATOM   1533  H   U   B  63      11.671   2.246  54.800  0.00  0.00    +0.000 HD
ENDBRANCH15241525
BRANCH15231534
ATOM   1534  O2' U   B  63      16.311   3.347  58.477  0.00  0.00    +0.000 OA
ATOM   1535  H   U   B  63      17.201   2.991  58.328  0.00  0.00    +0.000 HD
ENDBRANCH15231534
BRANCH15221536
ATOM   1536  O3' U   B  63      16.000   1.531  60.565  0.00  0.00    +0.000 OA
BRANCH15361537
ATOM   1537  P   A   B  64      14.906   1.528  61.729  0.00  0.00    +0.000 P 
ATOM   1538  OP2 A   B  64      14.147   0.249  61.670  0.00  0.00    +0.000 OA
BRANCH15371539
ATOM   1539  OP1 A   B  64      15.584   1.918  62.990  0.00  0.00    +0.000 OA
ATOM   1540  H   A   B  64      16.031   2.770  62.867  0.00  0.00    +0.000 HD
ENDBRANCH15371539
BRANCH15371541
ATOM   1541  O5' A   B  64      13.917   2.703  61.310  0.00  0.00    +0.000 OA
BRANCH15411542
ATOM   1542  C5' A   B  64      14.354   4.055  61.264  0.00  0.00    +0.000 C 
BRANCH15421543
ATOM   1543  C4' A   B  64      13.314   4.945  60.625  0.00  0.00    +0.000 C 
ATOM   1544  O4' A   B  64      13.087   4.532  59.253  0.00  0.00    +0.000 OA
ATOM   1545  C3' A   B  64      11.934   4.886  61.252  0.00  0.00    +0.000 C 
ATOM   1546  C2' A   B  64      11.037   5.344  60.110  0.00  0.00    +0.000 C 
ATOM   1547  C1' A   B  64      11.721   4.693  58.914  0.00  0.00    +0.000 C 
BRANCH15471548
ATOM   1548  N9  A   B  64      11.155   3.373  58.599  0.00  0.00    +0.000 N 
ATOM   1549  C8  A   B  64      11.650   2.145  58.950  0.00  0.00    +0.000 A 
ATOM   1550  N7  A   B  64      10.927   1.140  58.521  0.00  0.00    +0.000 NA
ATOM   1551  C5  A   B  64       9.880   1.747  57.841  0.00  0.00    +0.000 A 
ATOM   1552  C6  A   B  64       8.768   1.224  57.154  0.00  0.00    +0.000 A 
ATOM   1553  N1  A   B  64       7.914   2.098  56.589  0.00  0.00    +0.000 NA
ATOM   1554  C2  A   B  64       8.171   3.407  56.705  0.00  0.00    +0.000 A 
ATOM   1555  N3  A   B  64       9.177   4.016  57.324  0.00  0.00    +0.000 NA
ATOM   1556  C4  A   B  64      10.008   3.117  57.880  0.00  0.00    +0.000 A 
BRANCH15521557
ATOM   1557  N6  A   B  64       8.515  -0.085  57.041  0.00  0.00    +0.000 N 
ATOM   1558  H   A   B  64       7.720  -0.392  56.548  0.00  0.00    +0.000 HD
ATOM   1559  H   A   B  64       9.124  -0.741  57.451  0.00  0.00    +0.000 HD
ENDBRANCH15521557
ENDBRANCH15471548
BRANCH15461560
ATOM   1560  O2' A   B  64      11.068   6.751  59.956  0.00  0.00    +0.000 OA
ATOM   1561  H   A   B  64      11.984   7.042  59.825  0.00  0.00    +0.000 HD
ENDBRANCH15461560
BRANCH15451562
ATOM   1562  O3' A   B  64      11.842   5.702  62.413  0.00  0.00    +0.000 OA
BRANCH15621563
ATOM   1563  P   C   B  65      10.994   5.209  63.666  0.00  0.00    +0.000 P 
ATOM   1564  OP2 C   B  65      11.161   3.740  63.820  0.00  0.00    +0.000 OA
BRANCH15631565
ATOM   1565  OP1 C   B  65      11.314   6.106  64.801  0.00  0.00    +0.000 OA
ATOM   1566  H   C   B  65      11.153   7.027  64.541  0.00  0.00    +0.000 HD
ENDBRANCH15631565
BRANCH15631567
ATOM   1567  O5' C   B  65       9.493   5.488  63.213  0.00  0.00    +0.000 OA
BRANCH15671568
ATOM   1568  C5' C   B  65       9.053   6.798  62.890  0.00  0.00    +0.000 C 
BRANCH15681569
ATOM   1569  C4' C   B  65       7.681   6.773  62.262  0.00  0.00    +0.000 C 
ATOM   1570  O4' C   B  65       7.727   6.052  60.999  0.00  0.00    +0.000 OA
ATOM   1571  C3' C   B  65       6.617   6.049  63.053  0.00  0.00    +0.000 C 
ATOM   1572  C2' C   B  65       5.593   5.709  61.974  0.00  0.00    +0.000 C 
ATOM   1573  C1' C   B  65       6.502   5.374  60.793  0.00  0.00    +0.000 C 
BRANCH15731574
ATOM   1574  N1  C   B  65       6.774   3.922  60.679  0.00  0.00    +0.000 N 
ATOM   1575  C2  C   B  65       5.829   3.111  60.039  0.00  0.00    +0.000 A 
ATOM   1576  O2  C   B  65       4.798   3.626  59.586  0.00  0.00    +0.000 OA
ATOM   1577  N3  C   B  65       6.067   1.779  59.929  0.00  0.00    +0.000 NA
ATOM   1578  C4  C   B  65       7.187   1.254  60.424  0.00  0.00    +0.000 A 
ATOM   1579  N4  C   B  65       7.377  -0.060  60.295  0.00  0.00    +0.000 N 
ATOM   1580  C5  C   B  65       8.161   2.058  61.078  0.00  0.00    +0.000 A 
ATOM   1581  C6  C   B  65       7.916   3.373  61.181  0.00  0.00    +0.000 A 
ATOM   1582  H   C   B  65       6.700  -0.613  59.842  0.00  0.00    +0.000 HD
ATOM   1583  H   C   B  65       8.194  -0.477  60.653  0.00  0.00    +0.000 HD
ENDBRANCH15731574
BRANCH15721584
ATOM   1584  O2' C   B  65       4.798   6.825  61.640  0.00  0.00    +0.000 OA
ATOM   1585  H   C   B  65       5.370   7.558  61.364  0.00  0.00    +0.000 HD
ENDBRANCH15721584
BRANCH15711586
ATOM   1586  O3' C   B  65       6.087   6.851  64.104  0.00  0.00    +0.000 OA
BRANCH15861587
ATOM   1587  P   A   B  66       5.733   6.202  65.522  0.00  0.00    +0.000 P 
ATOM   1588  OP2 A   B  66       6.765   5.185  65.863  0.00  0.00    +0.000 OA
BRANCH15871589
ATOM   1589  OP1 A   B  66       5.439   7.303  66.467  0.00  0.00    +0.000 OA
ATOM   1590  H   A   B  66       4.748   7.873  66.095  0.00  0.00    +0.000 HD
ENDBRANCH15871589
BRANCH15871591
ATOM   1591  O5' A   B  66       4.375   5.427  65.211  0.00  0.00    +0.000 OA
BRANCH15911592
ATOM   1592  C5' A   B  66       3.199   6.132  64.835  0.00  0.00    +0.000 C 
BRANCH15921593
ATOM   1593  C4' A   B  66       2.064   5.176  64.561  0.00  0.00    +0.000 C 
ATOM   1594  O4' A   B  66       2.369   4.376  63.393  0.00  0.00    +0.000 OA
ATOM   1595  C3' A   B  66       1.799   4.155  65.649  0.00  0.00    +0.000 C 
ATOM   1596  C2' A   B  66       1.104   3.039  64.886  0.00  0.00    +0.000 C 
ATOM   1597  C1' A   B  66       1.847   3.073  63.555  0.00  0.00    +0.000 C 
BRANCH15971598
ATOM   1598  N9  A   B  66       2.959   2.117  63.498  0.00  0.00    +0.000 N 
ATOM   1599  C8  A   B  66       4.294   2.374  63.658  0.00  0.00    +0.000 A 
ATOM   1600  N7  A   B  66       5.055   1.312  63.542  0.00  0.00    +0.000 NA
ATOM   1601  C5  A   B  66       4.158   0.285  63.289  0.00  0.00    +0.000 A 
ATOM   1602  C6  A   B  66       4.333  -1.093  63.066  0.00  0.00    +0.000 A 
ATOM   1603  N1  A   B  66       3.232  -1.834  62.842  0.00  0.00    +0.000 NA
ATOM   1604  C2  A   B  66       2.039  -1.228  62.842  0.00  0.00    +0.000 A 
ATOM   1605  N3  A   B  66       1.748   0.054  63.037  0.00  0.00    +0.000 NA
ATOM   1606  C4  A   B  66       2.868   0.766  63.259  0.00  0.00    +0.000 A 
BRANCH16021607
ATOM   1607  N6  A   B  66       5.524  -1.698  63.067  0.00  0.00    +0.000 N 
ATOM   1608  H   A   B  66       5.584  -2.667  62.905  0.00  0.00    +0.000 HD
ATOM   1609  H   A   B  66       6.342  -1.175  63.230  0.00  0.00    +0.000 HD
ENDBRANCH16021607
ENDBRANCH15971598
BRANCH15961610
ATOM   1610  O2' A   B  66      -0.264   3.331  64.665  0.00  0.00    +0.000 OA
ATOM   1611  H   A   B  66      -0.343   4.178  64.199  0.00  0.00    +0.000 HD
ENDBRANCH15961610
BRANCH15951612
ATOM   1612  O3' A   B  66       1.011   4.698  66.708  0.00  0.00    +0.000 OA
BRANCH16121613
ATOM   1613  P   A   B  67       1.372   4.376  68.230  0.00  0.00    +0.000 P 
ATOM   1614  OP2 A   B  67       2.850   4.269  68.372  0.00  0.00    +0.000 OA
BRANCH16131615
ATOM   1615  OP1 A   B  67       0.619   5.334  69.081  0.00  0.00    +0.000 OA
ATOM   1616  H   A   B  67       0.985   6.225  68.966  0.00  0.00    +0.000 HD
ENDBRANCH16131615
BRANCH16131617
ATOM   1617  O5' A   B  67       0.757   2.929  68.435  0.00  0.00    +0.000 OA
BRANCH16171618
ATOM   1618  C5' A   B  67      -0.634   2.689  68.249  0.00  0.00    +0.000 C 
BRANCH16181619
ATOM   1619  C4' A   B  67      -0.908   1.216  68.093  0.00  0.00    +0.000 C 
ATOM   1620  O4' A   B  67      -0.247   0.729  66.902  0.00  0.00    +0.000 OA
ATOM   1621  C3' A   B  67      -0.371   0.335  69.201  0.00  0.00    +0.000 C 
ATOM   1622  C2' A   B  67      -0.226  -1.008  68.506  0.00  0.00    +0.000 C 
ATOM   1623  C1' A   B  67       0.243  -0.576  67.121  0.00  0.00    +0.000 C 
BRANCH16231624
ATOM   1624  N9  A   B  67       1.707  -0.542  67.002  0.00  0.00    +0.000 N 
ATOM   1625  C8  A   B  67       2.547   0.510  67.254  0.00  0.00    +0.000 A 
ATOM   1626  N7  A   B  67       3.812   0.233  67.053  0.00  0.00    +0.000 NA
ATOM   1627  C5  A   B  67       3.805  -1.092  66.643  0.00  0.00    +0.000 A 
ATOM   1628  C6  A   B  67       4.834  -1.976  66.274  0.00  0.00    +0.000 A 
ATOM   1629  N1  A   B  67       4.487  -3.226  65.919  0.00  0.00    +0.000 NA
ATOM   1630  C2  A   B  67       3.194  -3.558  65.931  0.00  0.00    +0.000 A 
ATOM   1631  N3  A   B  67       2.138  -2.819  66.255  0.00  0.00    +0.000 NA
ATOM   1632  C4  A   B  67       2.519  -1.579  66.609  0.00  0.00    +0.000 A 
BRANCH16281633
ATOM   1633  N6  A   B  67       6.129  -1.641  66.267  0.00  0.00    +0.000 N 
ATOM   1634  H   A   B  67       6.807  -2.302  65.999  0.00  0.00    +0.000 HD
ATOM   1635  H   A   B  67       6.404  -0.733  66.530  0.00  0.00    +0.000 HD
ENDBRANCH16281633
ENDBRANCH16231624
BRANCH16221636
ATOM   1636  O2' A   B  67      -1.470  -1.675  68.391  0.00  0.00    +0.000 OA
ATOM   1637  H   A   B  67      -2.101  -1.104  67.926  0.00  0.00    +0.000 HD
ENDBRANCH16221636
BRANCH16211638
ATOM   1638  O3' A   B  67      -1.239   0.304  70.332  0.00  0.00    +0.000 OA
BRANCH16381639
ATOM   1639  P   A   B  68      -0.646   0.438  71.811  0.00  0.00    +0.000 P 
ATOM   1640  OP2 A   B  68       0.677   1.118  71.747  0.00  0.00    +0.000 OA
BRANCH16391641
ATOM   1641  OP1 A   B  68      -1.718   0.995  72.675  0.00  0.00    +0.000 OA
ATOM   1642  H   A   B  68      -1.881   1.920  72.432  0.00  0.00    +0.000 HD
ENDBRANCH16391641
BRANCH16391643
ATOM   1643  O5' A   B  68      -0.399  -1.072  72.227  0.00  0.00    +0.000 OA
BRANCH16431644
ATOM   1644  C5' A   B  68      -1.477  -1.995  72.302  0.00  0.00    +0.000 C 
BRANCH16441645
ATOM   1645  C4' A   B  68      -0.992  -3.407  72.097  0.00  0.00    +0.000 C 
ATOM   1646  O4' A   B  68      -0.377  -3.522  70.792  0.00  0.00    +0.000 OA
ATOM   1647  C3' A   B  68       0.090  -3.876  73.049  0.00  0.00    +0.000 C 
ATOM   1648  C2' A   B  68       0.736  -5.001  72.257  0.00  0.00    +0.000 C 
ATOM   1649  C1' A   B  68       0.711  -4.417  70.850  0.00  0.00    +0.000 C 
BRANCH16491650
ATOM   1650  N9  A   B  68       1.943  -3.673  70.542  0.00  0.00    +0.000 N 
ATOM   1651  C8  A   B  68       2.200  -2.344  70.756  0.00  0.00    +0.000 A 
ATOM   1652  N7  A   B  68       3.401  -1.972  70.380  0.00  0.00    +0.000 NA
ATOM   1653  C5  A   B  68       3.974  -3.139  69.891  0.00  0.00    +0.000 A 
ATOM   1654  C6  A   B  68       5.236  -3.415  69.338  0.00  0.00    +0.000 A 
ATOM   1655  N1  A   B  68       5.486  -4.679  68.950  0.00  0.00    +0.000 NA
ATOM   1656  C2  A   B  68       4.529  -5.598  69.107  0.00  0.00    +0.000 A 
ATOM   1657  N3  A   B  68       3.303  -5.461  69.608  0.00  0.00    +0.000 NA
ATOM   1658  C4  A   B  68       3.088  -4.189  69.987  0.00  0.00    +0.000 A 
BRANCH16541659
ATOM   1659  N6  A   B  68       6.193  -2.495  69.190  0.00  0.00    +0.000 N 
ATOM   1660  H   A   B  68       7.060  -2.745  68.796  0.00  0.00    +0.000 HD
ATOM   1661  H   A   B  68       6.032  -1.567  69.475  0.00  0.00    +0.000 HD
ENDBRANCH16541659
ENDBRANCH16491650
BRANCH16481662
ATOM   1662  O2' A   B  68      -0.046  -6.179  72.285  0.00  0.00    +0.000 OA
ATOM   1663  H   A   B  68      -0.938  -5.983  71.957  0.00  0.00    +0.000 HD
ENDBRANCH16481662
BRANCH16471664
ATOM   1664  O3' A   B  68      -0.426  -4.286  74.311  0.00  0.00    +0.000 OA
BRANCH16641665
ATOM   1665  P   A   B  69       0.480  -4.125  75.624  0.00  0.00    +0.000 P 
ATOM   1666  OP2 A   B  69       1.313  -2.897  75.501  0.00  0.00    +0.000 OA
BRANCH16651667
ATOM   1667  OP1 A   B  69      -0.414  -4.290  76.798  0.00  0.00    +0.000 OA
ATOM   1668  H   A   B  69      -1.012  -3.528  76.859  0.00  0.00    +0.000 HD
ENDBRANCH16651667
BRANCH16651669
ATOM   1669  O5' A   B  69       1.450  -5.383  75.543  0.00  0.00    +0.000 OA
BRANCH16691670
ATOM   1670  C5' A   B  69       0.933  -6.704  75.649  0.00  0.00    +0.000 C 
BRANCH16701671
ATOM   1671  C4' A   B  69       1.948  -7.731  75.207  0.00  0.00    +0.000 C 
ATOM   1672  O4' A   B  69       2.356  -7.462  73.843  0.00  0.00    +0.000 OA
ATOM   1673  C3' A   B  69       3.254  -7.757  75.969  0.00  0.00    +0.000 C 
ATOM   1674  C2' A   B  69       4.177  -8.454  74.979  0.00  0.00    +0.000 C 
ATOM   1675  C1' A   B  69       3.700  -7.860  73.659  0.00  0.00    +0.000 C 
BRANCH16751676
ATOM   1676  N9  A   B  69       4.499  -6.696  73.256  0.00  0.00    +0.000 N 
ATOM   1677  C8  A   B  69       4.211  -5.368  73.418  0.00  0.00    +0.000 A 
ATOM   1678  N7  A   B  69       5.139  -4.565  72.949  0.00  0.00    +0.000 NA
ATOM   1679  C5  A   B  69       6.106  -5.430  72.452  0.00  0.00    +0.000 A 
ATOM   1680  C6  A   B  69       7.344  -5.204  71.819  0.00  0.00    +0.000 A 
ATOM   1681  N1  A   B  69       8.061  -6.283  71.447  0.00  0.00    +0.000 NA
ATOM   1682  C2  A   B  69       7.562  -7.502  71.692  0.00  0.00    +0.000 A 
ATOM   1683  N3  A   B  69       6.413  -7.838  72.273  0.00  0.00    +0.000 NA
ATOM   1684  C4  A   B  69       5.726  -6.738  72.633  0.00  0.00    +0.000 A 
BRANCH16801685
ATOM   1685  N6  A   B  69       7.842  -3.987  71.580  0.00  0.00    +0.000 N 
ATOM   1686  H   A   B  69       8.714  -3.891  71.133  0.00  0.00    +0.000 HD
ATOM   1687  H   A   B  69       7.337  -3.187  71.851  0.00  0.00    +0.000 HD
ENDBRANCH16801685
ENDBRANCH16751676
BRANCH16741688
ATOM   1688  O2' A   B  69       3.966  -9.853  74.966  0.00  0.00    +0.000 OA
ATOM   1689  H   A   B  69       3.034 -10.038  74.771  0.00  0.00    +0.000 HD
ENDBRANCH16741688
BRANCH16731690
ATOM   1690  O3' A   B  69       3.145  -8.436  77.216  0.00  0.00    +0.000 OA
BRANCH16901691
ATOM   1691  P   A   B  70       4.068  -7.966  78.439  0.00  0.00    +0.000 P 
ATOM   1692  OP2 A   B  70       4.140  -6.478  78.469  0.00  0.00    +0.000 OA
BRANCH16911693
ATOM   1693  OP1 A   B  70       3.595  -8.698  79.640  0.00  0.00    +0.000 OA
ATOM   1694  H   A   B  70       3.606  -9.652  79.463  0.00  0.00    +0.000 HD
ENDBRANCH16911693
BRANCH16911695
ATOM   1695  O5' A   B  70       5.510  -8.511  78.049  0.00  0.00    +0.000 OA
BRANCH16951696
ATOM   1696  C5' A   B  70       5.760  -9.911  77.947  0.00  0.00    +0.000 C 
BRANCH16961697
ATOM   1697  C4' A   B  70       7.080 -10.180  77.266  0.00  0.00    +0.000 C 
ATOM   1698  O4' A   B  70       7.075  -9.576  75.949  0.00  0.00    +0.000 OA
ATOM   1699  C3' A   B  70       8.303  -9.584  77.929  0.00  0.00    +0.000 C 
ATOM   1700  C2' A   B  70       9.288  -9.515  76.773  0.00  0.00    +0.000 C 
ATOM   1701  C1' A   B  70       8.366  -9.099  75.632  0.00  0.00    +0.000 C 
BRANCH17011702
ATOM   1702  N9  A   B  70       8.308  -7.638  75.480  0.00  0.00    +0.000 N 
ATOM   1703  C8  A   B  70       7.355  -6.779  75.958  0.00  0.00    +0.000 A 
ATOM   1704  N7  A   B  70       7.583  -5.520  75.661  0.00  0.00    +0.000 NA
ATOM   1705  C5  A   B  70       8.772  -5.557  74.945  0.00  0.00    +0.000 A 
ATOM   1706  C6  A   B  70       9.550  -4.552  74.345  0.00  0.00    +0.000 A 
ATOM   1707  N1  A   B  70      10.677  -4.922  73.709  0.00  0.00    +0.000 NA
ATOM   1708  C2  A   B  70      10.993  -6.222  73.680  0.00  0.00    +0.000 A 
ATOM   1709  N3  A   B  70      10.344  -7.257  74.202  0.00  0.00    +0.000 NA
ATOM   1710  C4  A   B  70       9.228  -6.851  74.829  0.00  0.00    +0.000 A 
BRANCH17061711
ATOM   1711  N6  A   B  70       9.230  -3.252  74.386  0.00  0.00    +0.000 N 
ATOM   1712  H   A   B  70       9.811  -2.588  73.949  0.00  0.00    +0.000 HD
ATOM   1713  H   A   B  70       8.414  -2.960  74.854  0.00  0.00    +0.000 HD
ENDBRANCH17061711
ENDBRANCH17011702
BRANCH17001714
ATOM   1714  O2' A   B  70       9.848 -10.784  76.485  0.00  0.00    +0.000 OA
ATOM   1715  H   A   B  70       9.136 -11.419  76.307  0.00  0.00    +0.000 HD
ENDBRANCH17001714
BRANCH16991716
ATOM   1716  O3' A   B  70       8.765 -10.364  79.024  0.00  0.00    +0.000 OA
BRANCH17161717
ATOM   1717  P   U   B  71       9.519  -9.630  80.251  0.00  0.00    +0.000 P 
ATOM   1718  OP2 U   B  71       8.930  -8.282  80.464  0.00  0.00    +0.000 OA
BRANCH17171719
ATOM   1719  OP1 U   B  71       9.563 -10.597  81.374  0.00  0.00    +0.000 OA
ATOM   1720  H   U   B  71       9.974 -11.423  81.074  0.00  0.00    +0.000 HD
ENDBRANCH17171719
BRANCH17171721
ATOM   1721  O5' U   B  71      11.000  -9.435  79.695  0.00  0.00    +0.000 OA
BRANCH17211722
ATOM   1722  C5' U   B  71      11.810 -10.553  79.358  0.00  0.00    +0.000 C 
BRANCH17221723
ATOM   1723  C4' U   B  71      13.026 -10.133  78.565  0.00  0.00    +0.000 C 
ATOM   1724  O4' U   B  71      12.608  -9.458  77.350  0.00  0.00    +0.000 OA
ATOM   1725  C3' U   B  71      13.940  -9.133  79.232  0.00  0.00    +0.000 C 
ATOM   1726  C2' U   B  71      14.677  -8.542  78.038  0.00  0.00    +0.000 C 
ATOM   1727  C1' U   B  71      13.553  -8.464  77.008  0.00  0.00    +0.000 C 
BRANCH17271728
ATOM   1728  N1  U   B  71      12.890  -7.141  77.004  0.00  0.00    +0.000 N 
ATOM   1729  C2  U   B  71      13.509  -6.122  76.304  0.00  0.00    +0.000 A 
ATOM   1730  O2  U   B  71      14.558  -6.278  75.697  0.00  0.00    +0.000 OA
ATOM   1731  N3  U   B  71      12.855  -4.910  76.336  0.00  0.00    +0.000 N 
ATOM   1732  C4  U   B  71      11.672  -4.617  76.984  0.00  0.00    +0.000 A 
ATOM   1733  O4  U   B  71      11.213  -3.479  76.922  0.00  0.00    +0.000 OA
ATOM   1734  C5  U   B  71      11.097  -5.720  77.686  0.00  0.00    +0.000 A 
ATOM   1735  C6  U   B  71      11.708  -6.917  77.671  0.00  0.00    +0.000 A 
ATOM   1736  H   U   B  71      13.278  -4.171  75.842  0.00  0.00    +0.000 HD
ENDBRANCH17271728
BRANCH17261737
ATOM   1737  O2' U   B  71      15.686  -9.411  77.561  0.00  0.00    +0.000 OA
ATOM   1738  H   U   B  71      15.295 -10.271  77.343  0.00  0.00    +0.000 HD
ENDBRANCH17261737
BRANCH17251739
ATOM   1739  O3' U   B  71      14.806  -9.731  80.191  0.00  0.00    +0.000 OA
BRANCH17391740
ATOM   1740  P   C   B  72      15.387  -8.826  81.389  0.00  0.00    +0.000 P 
ATOM   1741  OP2 C   B  72      14.360  -7.839  81.812  0.00  0.00    +0.000 OA
BRANCH17401742
ATOM   1742  OP1 C   B  72      15.963  -9.752  82.393  0.00  0.00    +0.000 OA
ATOM   1743  H   C   B  72      16.614 -10.329  81.964  0.00  0.00    +0.000 HD
ENDBRANCH17401742
BRANCH17401744
ATOM   1744  O5' C   B  72      16.582  -8.029  80.701  0.00  0.00    +0.000 OA
BRANCH17441745
ATOM   1745  C5' C   B  72      17.722  -8.713  80.187  0.00  0.00    +0.000 C 
BRANCH17451746
ATOM   1746  C4' C   B  72      18.589  -7.798  79.358  0.00  0.00    +0.000 C 
ATOM   1747  O4' C   B  72      17.818  -7.258  78.248  0.00  0.00    +0.000 OA
ATOM   1748  C3' C   B  72      19.114  -6.564  80.053  0.00  0.00    +0.000 C 
ATOM   1749  C2' C   B  72      19.444  -5.655  78.875  0.00  0.00    +0.000 C 
ATOM   1750  C1' C   B  72      18.278  -5.956  77.936  0.00  0.00    +0.000 C 
BRANCH17501751
ATOM   1751  N1  C   B  72      17.168  -4.988  78.094  0.00  0.00    +0.000 N 
ATOM   1752  C2  C   B  72      17.263  -3.753  77.437  0.00  0.00    +0.000 A 
ATOM   1753  O2  C   B  72      18.262  -3.506  76.743  0.00  0.00    +0.000 OA
ATOM   1754  N3  C   B  72      16.252  -2.850  77.573  0.00  0.00    +0.000 NA
ATOM   1755  C4  C   B  72      15.189  -3.141  78.323  0.00  0.00    +0.000 A 
ATOM   1756  N4  C   B  72      14.222  -2.226  78.429  0.00  0.00    +0.000 N 
ATOM   1757  C5  C   B  72      15.072  -4.386  79.001  0.00  0.00    +0.000 A 
ATOM   1758  C6  C   B  72      16.073  -5.271  78.858  0.00  0.00    +0.000 A 
ATOM   1759  H   C   B  72      14.305  -1.365  77.959  0.00  0.00    +0.000 HD
ATOM   1760  H   C   B  72      13.426  -2.412  78.977  0.00  0.00    +0.000 HD
ENDBRANCH17501751
BRANCH17491761
ATOM   1761  O2' C   B  72      20.652  -6.029  78.246  0.00  0.00    +0.000 OA
ATOM   1762  H   C   B  72      20.599  -6.957  77.970  0.00  0.00    +0.000 HD
ENDBRANCH17491761
BRANCH17481763
ATOM   1763  O3' C   B  72      20.239  -6.834  80.882  0.00  0.00    +0.000 OA
BRANCH17631764
ATOM   1764  P   U   B  73      20.511  -5.885  82.177  0.00  0.00    +0.000 P 
ATOM   1765  OP2 U   B  73      19.214  -5.538  82.814  0.00  0.00    +0.000 OA
BRANCH17641766
ATOM   1766  OP1 U   B  73      21.574  -6.534  82.978  0.00  0.00    +0.000 OA
ATOM   1767  H   U   B  73      22.350  -6.692  82.418  0.00  0.00    +0.000 HD
ENDBRANCH17641766
BRANCH17641768
ATOM   1768  O5' U   B  73      21.109  -4.552  81.532  0.00  0.00    +0.000 OA
BRANCH17681769
ATOM   1769  C5' U   B  73      22.361  -4.556  80.858  0.00  0.00    +0.000 C 
BRANCH17691770
ATOM   1770  C4' U   B  73      22.598  -3.266  80.111  0.00  0.00    +0.000 C 
ATOM   1771  O4' U   B  73      21.538  -3.050  79.141  0.00  0.00    +0.000 OA
ATOM   1772  C3' U   B  73      22.580  -2.003  80.940  0.00  0.00    +0.000 C 
ATOM   1773  C2' U   B  73      22.308  -0.938  79.883  0.00  0.00    +0.000 C 
ATOM   1774  C1' U   B  73      21.305  -1.662  78.989  0.00  0.00    +0.000 C 
BRANCH17741775
ATOM   1775  N1  U   B  73      19.908  -1.351  79.361  0.00  0.00    +0.000 N 
ATOM   1776  C2  U   B  73      19.377  -0.156  78.897  0.00  0.00    +0.000 A 
ATOM   1777  O2  U   B  73      20.008   0.628  78.208  0.00  0.00    +0.000 OA
ATOM   1778  N3  U   B  73      18.074   0.091  79.274  0.00  0.00    +0.000 N 
ATOM   1779  C4  U   B  73      17.267  -0.717  80.048  0.00  0.00    +0.000 A 
ATOM   1780  O4  U   B  73      16.121  -0.358  80.304  0.00  0.00    +0.000 OA
ATOM   1781  C5  U   B  73      17.886  -1.929  80.485  0.00  0.00    +0.000 A 
ATOM   1782  C6  U   B  73      19.154  -2.200  80.132  0.00  0.00    +0.000 A 
ATOM   1783  H   U   B  73      17.677   0.934  78.957  0.00  0.00    +0.000 HD
ENDBRANCH17741775
BRANCH17731784
ATOM   1784  O2' U   B  73      23.467  -0.638  79.130  0.00  0.00    +0.000 OA
ATOM   1785  H   U   B  73      23.812  -1.452  78.730  0.00  0.00    +0.000 HD
ENDBRANCH17731784
BRANCH17721786
ATOM   1786  O3' U   B  73      23.795  -1.789  81.649  0.00  0.00    +0.000 OA
BRANCH17861787
ATOM   1787  P   C   B  74      23.769  -0.914  83.000  0.00  0.00    +0.000 P 
ATOM   1788  OP1 C   B  74      25.100  -1.063  83.637  0.00  0.00    +0.000 OA
BRANCH17871789
ATOM   1789  OP2 C   B  74      22.545  -1.244  83.776  0.00  0.00    +0.000 OA
ATOM   1790  H   C   B  74      21.762  -1.095  83.223  0.00  0.00    +0.000 HD
ENDBRANCH17871789
BRANCH17871791
ATOM   1791  O5' C   B  74      23.627   0.586  82.482  0.00  0.00    +0.000 OA
BRANCH17911792
ATOM   1792  C5' C   B  74      24.650   1.198  81.703  0.00  0.00    +0.000 C 
BRANCH17921793
ATOM   1793  C4' C   B  74      24.200   2.529  81.149  0.00  0.00    +0.000 C 
ATOM   1794  O4' C   B  74      23.012   2.351  80.327  0.00  0.00    +0.000 OA
ATOM   1795  C3' C   B  74      23.778   3.562  82.167  0.00  0.00    +0.000 C 
ATOM   1796  C2' C   B  74      22.913   4.497  81.327  0.00  0.00    +0.000 C 
ATOM   1797  C1' C   B  74      22.193   3.503  80.420  0.00  0.00    +0.000 C 
BRANCH17971798
ATOM   1798  N1  C   B  74      20.866   3.118  80.948  0.00  0.00    +0.000 N 
ATOM   1799  C2  C   B  74      19.789   3.995  80.753  0.00  0.00    +0.000 A 
ATOM   1800  O2  C   B  74      19.975   5.057  80.143  0.00  0.00    +0.000 OA
ATOM   1801  N3  C   B  74      18.562   3.657  81.231  0.00  0.00    +0.000 NA
ATOM   1802  C4  C   B  74      18.391   2.505  81.881  0.00  0.00    +0.000 A 
ATOM   1803  N4  C   B  74      17.172   2.211  82.334  0.00  0.00    +0.000 N 
ATOM   1804  C5  C   B  74      19.469   1.600  82.094  0.00  0.00    +0.000 A 
ATOM   1805  C6  C   B  74      20.676   1.943  81.611  0.00  0.00    +0.000 A 
ATOM   1806  H   C   B  74      16.427   2.838  82.186  0.00  0.00    +0.000 HD
ATOM   1807  H   C   B  74      17.016   1.367  82.817  0.00  0.00    +0.000 HD
ENDBRANCH17971798
BRANCH17961808
ATOM   1808  O2' C   B  74      23.695   5.364  80.529  0.00  0.00    +0.000 OA
ATOM   1809  H   C   B  74      24.289   4.840  79.969  0.00  0.00    +0.000 HD
ENDBRANCH17961808
BRANCH17951810
ATOM   1810  O3' C   B  74      24.886   4.220  82.768  0.00  0.00    +0.000 OA
BRANCH18101811
ATOM   1811  P   C   B  75      24.759   4.850  84.267  0.00  0.00    +0.000 P 
ATOM   1812  OP1 C   B  75      26.119   5.235  84.709  0.00  0.00    +0.000 OA
BRANCH18111813
ATOM   1813  OP2 C   B  75      23.954   3.919  85.097  0.00  0.00    +0.000 OA
ATOM   1814  H   C   B  75      23.095   3.769  84.673  0.00  0.00    +0.000 HD
ENDBRANCH18111813
BRANCH18111815
ATOM   1815  O5' C   B  75      23.907   6.178  84.049  0.00  0.00    +0.000 OA
BRANCH18151816
ATOM   1816  C5' C   B  75      24.426   7.274  83.307  0.00  0.00    +0.000 C 
BRANCH18161817
ATOM   1817  C4' C   B  75      23.416   8.392  83.194  0.00  0.00    +0.000 C 
ATOM   1818  O4' C   B  75      22.254   7.939  82.444  0.00  0.00    +0.000 OA
ATOM   1819  C3' C   B  75      22.836   8.888  84.497  0.00  0.00    +0.000 C 
ATOM   1820  C2' C   B  75      21.537   9.537  84.042  0.00  0.00    +0.000 C 
ATOM   1821  C1' C   B  75      21.093   8.586  82.930  0.00  0.00    +0.000 C 
BRANCH18211822
ATOM   1822  N1  C   B  75      20.133   7.568  83.401  0.00  0.00    +0.000 N 
ATOM   1823  C2  C   B  75      18.781   7.923  83.517  0.00  0.00    +0.000 A 
ATOM   1824  O2  C   B  75      18.426   9.071  83.223  0.00  0.00    +0.000 OA
ATOM   1825  N3  C   B  75      17.888   6.991  83.945  0.00  0.00    +0.000 NA
ATOM   1826  C4  C   B  75      18.299   5.761  84.252  0.00  0.00    +0.000 A 
ATOM   1827  N4  C   B  75      17.393   4.876  84.668  0.00  0.00    +0.000 N 
ATOM   1828  C5  C   B  75      19.665   5.379  84.145  0.00  0.00    +0.000 A 
ATOM   1829  C6  C   B  75      20.537   6.306  83.716  0.00  0.00    +0.000 A 
ATOM   1830  H   C   B  75      16.447   5.138  84.743  0.00  0.00    +0.000 HD
ATOM   1831  H   C   B  75      17.670   3.960  84.900  0.00  0.00    +0.000 HD
ENDBRANCH18211822
BRANCH18201832
ATOM   1832  O2' C   B  75      21.757  10.819  83.489  0.00  0.00    +0.000 OA
ATOM   1833  H   C   B  75      22.389  10.751  82.756  0.00  0.00    +0.000 HD
ENDBRANCH18201832
BRANCH18191834
ATOM   1834  O3' C   B  75      23.709   9.791  85.172  0.00  0.00    +0.000 OA
BRANCH18341835
ATOM   1835  P   A   B  76      23.795   9.792  86.777  0.00  0.00    +0.000 P 
ATOM   1836  OP1 A   B  76      24.925  10.671  87.168  0.00  0.00    +0.000 OA
BRANCH18351837
ATOM   1837  OP2 A   B  76      23.746   8.390  87.252  0.00  0.00    +0.000 OA
ATOM   1838  H   A   B  76      24.565   7.935  87.001  0.00  0.00    +0.000 HD
ENDBRANCH18351837
BRANCH18351839
ATOM   1839  O5' A   B  76      22.435  10.502  87.209  0.00  0.00    +0.000 OA
BRANCH18391840
ATOM   1840  C5' A   B  76      22.202  11.876  86.924  0.00  0.00    +0.000 C 
BRANCH18401841
ATOM   1841  C4' A   B  76      20.772  12.271  87.218  0.00  0.00    +0.000 C 
ATOM   1842  O4' A   B  76      19.882  11.491  86.387  0.00  0.00    +0.000 OA
ATOM   1843  C3' A   B  76      20.286  11.990  88.630  0.00  0.00    +0.000 C 
ATOM   1844  C2' A   B  76      18.785  11.904  88.447  0.00  0.00    +0.000 C 
ATOM   1845  C1' A   B  76      18.690  11.205  87.089  0.00  0.00    +0.000 C 
BRANCH18451846
ATOM   1846  N9  A   B  76      18.561   9.750  87.218  0.00  0.00    +0.000 N 
ATOM   1847  C8  A   B  76      19.550   8.812  87.185  0.00  0.00    +0.000 A 
ATOM   1848  N7  A   B  76      19.125   7.579  87.330  0.00  0.00    +0.000 NA
ATOM   1849  C5  A   B  76      17.755   7.718  87.470  0.00  0.00    +0.000 A 
ATOM   1850  C6  A   B  76      16.724   6.784  87.654  0.00  0.00    +0.000 A 
ATOM   1851  N6  A   B  76      16.925   5.463  87.742  0.00  0.00    +0.000 N 
ATOM   1852  N1  A   B  76      15.464   7.253  87.750  0.00  0.00    +0.000 NA
ATOM   1853  C2  A   B  76      15.264   8.573  87.667  0.00  0.00    +0.000 A 
ATOM   1854  N3  A   B  76      16.154   9.544  87.492  0.00  0.00    +0.000 NA
ATOM   1855  C4  A   B  76      17.395   9.039  87.400  0.00  0.00    +0.000 A 
ATOM   1856  H   A   B  76      17.837   5.098  87.675  0.00  0.00    +0.000 HD
ATOM   1857  H   A   B  76      16.161   4.857  87.874  0.00  0.00    +0.000 HD
ENDBRANCH18451846
BRANCH18441858
ATOM   1858  O2' A   B  76      18.203  13.187  88.355  0.00  0.00    +0.000 OA
ATOM   1859  H   A   B  76      18.623  13.682  87.634  0.00  0.00    +0.000 HD
ENDBRANCH18441858
BRANCH18431860
ATOM   1860  O3' A   B  76      20.690  12.997  89.553  0.00  0.00    +0.000 OA
ATOM   1861  H   A   B  76      20.362  13.860  89.254  0.00  0.00    +0.000 HD
ENDBRANCH18431860
ENDBRANCH18401841
ENDBRANCH18391840
ENDBRANCH18351839
ENDBRANCH18341835
ENDBRANCH18191834
ENDBRANCH18161817
ENDBRANCH18151816
ENDBRANCH18111815
ENDBRANCH18101811
ENDBRANCH17951810
ENDBRANCH17921793
ENDBRANCH17911792
ENDBRANCH17871791
ENDBRANCH17861787
ENDBRANCH17721786
ENDBRANCH17691770
ENDBRANCH17681769
ENDBRANCH17641768
ENDBRANCH17631764
ENDBRANCH17481763
ENDBRANCH17451746
ENDBRANCH17441745
ENDBRANCH17401744
ENDBRANCH17391740
ENDBRANCH17251739
ENDBRANCH17221723
ENDBRANCH17211722
ENDBRANCH17171721
ENDBRANCH17161717
ENDBRANCH16991716
ENDBRANCH16961697
ENDBRANCH16951696
ENDBRANCH16911695
ENDBRANCH16901691
ENDBRANCH16731690
ENDBRANCH16701671
ENDBRANCH16691670
ENDBRANCH16651669
ENDBRANCH16641665
ENDBRANCH16471664
ENDBRANCH16441645
ENDBRANCH16431644
ENDBRANCH16391643
ENDBRANCH16381639
ENDBRANCH16211638
ENDBRANCH16181619
ENDBRANCH16171618
ENDBRANCH16131617
ENDBRANCH16121613
ENDBRANCH15951612
ENDBRANCH15921593
ENDBRANCH15911592
ENDBRANCH15871591
ENDBRANCH15861587
ENDBRANCH15711586
ENDBRANCH15681569
ENDBRANCH15671568
ENDBRANCH15631567
ENDBRANCH15621563
ENDBRANCH15451562
ENDBRANCH15421543
ENDBRANCH15411542
ENDBRANCH15371541
ENDBRANCH15361537
ENDBRANCH15221536
ENDBRANCH15191520
ENDBRANCH15181519
ENDBRANCH15141518
ENDBRANCH15131514
ENDBRANCH14981513
ENDBRANCH14951496
ENDBRANCH14941495
ENDBRANCH14901494
ENDBRANCH14891490
ENDBRANCH 5321489
TORSDOF 358
