REMARK  Name = /storage/kiran-stuff/aaRS/phase2/energy_scoring/vina_182jobs/anc_prors_cat_ILE_ILE/ligand.h.pdb
REMARK  7 active torsions:
REMARK  status: ('A' for Active; 'I' for Inactive)
REMARK    1  A    between atoms: N_1  and  CA_2
REMARK    2  A    between atoms: CA_2  and  C_3
REMARK    3  A    between atoms: CA_2  and  CB_5
REMARK    4  A    between atoms: C_3  and  O_4
REMARK    5  A    between atoms: CB_5  and  CG1_6
REMARK    6  A    between atoms: CB_5  and  CG2_7
REMARK    7  A    between atoms: CG1_6  and  CD1_8
REMARK                            x       y       z     vdW  Elec       q    Type
REMARK                         _______ _______ _______ _____ _____    ______ ____
ROOT
ATOM      1  CA  ILE B   1      10.556  -5.874   7.653  0.00  0.00    +0.000 C 
ENDROOT
BRANCH   1   2
ATOM      2  N   ILE B   1      10.197  -6.338   9.007  0.00  0.00    +0.000 NA
ATOM      3  H   ILE B   1       9.217  -6.623   9.020  0.00  0.00    +0.000 HD
ATOM      4  H   ILE B   1      10.341  -5.581   9.675  0.00  0.00    +0.000 HD
ENDBRANCH   1   2
BRANCH   1   5
ATOM      5  C   ILE B   1      10.232  -6.974   6.659  0.00  0.00    +0.000 C 
ATOM      6  OXT ILE B   1      11.098  -7.447   5.925  0.00  0.00    +0.000 OA
BRANCH   5   7
ATOM      7  O   ILE B   1       9.070  -7.396   6.586  0.00  0.00    +0.000 OA
ATOM      8  H   ILE B   1       8.407  -7.041   7.143  0.00  0.00    +0.000 HD
ENDBRANCH   5   7
ENDBRANCH   1   5
BRANCH   1   9
ATOM      9  CB  ILE B   1      12.030  -5.451   7.653  0.00  0.00    +0.000 C 
ATOM     10  CG2 ILE B   1      12.335  -4.705   8.912  0.00  0.00    +0.000 C 
BRANCH   9  11
ATOM     11  CG1 ILE B   1      12.390  -4.588   6.473  0.00  0.00    +0.000 C 
ATOM     12  CD1 ILE B   1      13.760  -4.841   5.930  0.00  0.00    +0.000 C 
ENDBRANCH   9  11
ENDBRANCH   1   9
TORSDOF 5
