REMARK  Name = /storage/kiran-stuff/aaRS/phase2/energy_scoring/vina_182jobs/deep_cat_trp_TRP/ligand.h.pdb
REMARK  624 active torsions:
REMARK  status: ('A' for Active; 'I' for Inactive)
REMARK    1  A    between atoms: OP3_1  and  P_2
REMARK    2  A    between atoms: P_2  and  OP1_3
REMARK    3  A    between atoms: P_2  and  O5'_5
REMARK    4  A    between atoms: O5'_5  and  C5'_6
REMARK    5  A    between atoms: C5'_6  and  C4'_7
REMARK    6  A    between atoms: C3'_9  and  O3'_10
REMARK    7  A    between atoms: O3'_10  and  P_22
REMARK    8  A    between atoms: C2'_11  and  O2'_12
REMARK    9  A    between atoms: C1'_13  and  N1_14
REMARK   10  A    between atoms: P_22  and  OP1_23
REMARK   11  A    between atoms: P_22  and  O5'_25
REMARK   12  A    between atoms: O5'_25  and  C5'_26
REMARK   13  A    between atoms: C5'_26  and  C4'_27
REMARK   14  A    between atoms: C3'_29  and  O3'_30
REMARK   15  A    between atoms: O3'_30  and  P_42
REMARK   16  A    between atoms: C2'_31  and  O2'_32
REMARK   17  A    between atoms: C1'_33  and  N1_34
REMARK   18  A    between atoms: P_42  and  OP1_43
REMARK   19  A    between atoms: P_42  and  O5'_45
REMARK   20  A    between atoms: O5'_45  and  C5'_46
REMARK   21  A    between atoms: C5'_46  and  C4'_47
REMARK   22  A    between atoms: C3'_49  and  O3'_50
REMARK   23  A    between atoms: O3'_50  and  P_64
REMARK   24  A    between atoms: C2'_51  and  O2'_52
REMARK   25  A    between atoms: C1'_53  and  N9_54
REMARK   26  A    between atoms: P_64  and  OP2_66
REMARK   27  A    between atoms: P_64  and  O5'_67
REMARK   28  A    between atoms: O5'_67  and  C5'_68
REMARK   29  A    between atoms: C5'_68  and  C4'_69
REMARK   30  A    between atoms: C3'_71  and  O3'_72
REMARK   31  A    between atoms: O3'_72  and  P_86
REMARK   32  A    between atoms: C2'_73  and  O2'_74
REMARK   33  A    between atoms: C1'_75  and  N9_76
REMARK   34  A    between atoms: P_86  and  OP2_88
REMARK   35  A    between atoms: P_86  and  O5'_89
REMARK   36  A    between atoms: O5'_89  and  C5'_90
REMARK   37  A    between atoms: C5'_90  and  C4'_91
REMARK   38  A    between atoms: C3'_93  and  O3'_94
REMARK   39  A    between atoms: O3'_94  and  P_106
REMARK   40  A    between atoms: C2'_95  and  O2'_96
REMARK   41  A    between atoms: C1'_97  and  N1_98
REMARK   42  A    between atoms: P_106  and  OP2_108
REMARK   43  A    between atoms: P_106  and  O5'_109
REMARK   44  A    between atoms: O5'_109  and  C5'_110
REMARK   45  A    between atoms: C5'_110  and  C4'_111
REMARK   46  A    between atoms: C3'_113  and  O3'_114
REMARK   47  A    between atoms: O3'_114  and  P_128
REMARK   48  A    between atoms: C2'_115  and  O2'_116
REMARK   49  A    between atoms: C1'_117  and  N9_118
REMARK   50  A    between atoms: P_128  and  OP2_130
REMARK   51  A    between atoms: P_128  and  O5'_131
REMARK   52  A    between atoms: O5'_131  and  C5'_132
REMARK   53  A    between atoms: C5'_132  and  C4'_133
REMARK   54  A    between atoms: C3'_135  and  O3'_136
REMARK   55  A    between atoms: O3'_136  and  P_148
REMARK   56  A    between atoms: C2'_137  and  O2'_138
REMARK   57  A    between atoms: C1'_139  and  N1_140
REMARK   58  A    between atoms: P_148  and  OP1_149
REMARK   59  A    between atoms: P_148  and  O5'_151
REMARK   60  A    between atoms: O5'_151  and  C5'_152
REMARK   61  A    between atoms: C5'_152  and  C4'_153
REMARK   62  A    between atoms: C3'_155  and  O3'_156
REMARK   63  A    between atoms: O3'_156  and  P_168
REMARK   64  A    between atoms: C2'_157  and  O2'_158
REMARK   65  A    between atoms: C1'_159  and  N1_160
REMARK   66  A    between atoms: P_168  and  OP1_169
REMARK   67  A    between atoms: P_168  and  O5'_171
REMARK   68  A    between atoms: O5'_171  and  C5'_172
REMARK   69  A    between atoms: C5'_172  and  C4'_173
REMARK   70  A    between atoms: C3'_175  and  O3'_176
REMARK   71  A    between atoms: O3'_176  and  P_190
REMARK   72  A    between atoms: C2'_177  and  O2'_178
REMARK   73  A    between atoms: C1'_179  and  N9_180
REMARK   74  A    between atoms: C6_184  and  N6_185
REMARK   75  A    between atoms: P_190  and  OP1_191
REMARK   76  A    between atoms: P_190  and  O5'_193
REMARK   77  A    between atoms: O5'_193  and  C5'_194
REMARK   78  A    between atoms: C5'_194  and  C4'_195
REMARK   79  A    between atoms: C3'_197  and  O3'_198
REMARK   80  A    between atoms: O3'_198  and  P_210
REMARK   81  A    between atoms: C2'_199  and  O2'_200
REMARK   82  A    between atoms: C1'_201  and  N1_202
REMARK   83  A    between atoms: P_210  and  OP2_212
REMARK   84  A    between atoms: P_210  and  O5'_213
REMARK   85  A    between atoms: O5'_213  and  C5'_214
REMARK   86  A    between atoms: C5'_214  and  C4'_215
REMARK   87  A    between atoms: C3'_217  and  O3'_218
REMARK   88  A    between atoms: O3'_218  and  P_230
REMARK   89  A    between atoms: C2'_219  and  O2'_220
REMARK   90  A    between atoms: C1'_221  and  N1_222
REMARK   91  A    between atoms: P_230  and  OP2_232
REMARK   92  A    between atoms: P_230  and  O5'_233
REMARK   93  A    between atoms: O5'_233  and  C5'_234
REMARK   94  A    between atoms: C5'_234  and  C4'_235
REMARK   95  A    between atoms: C3'_237  and  O3'_238
REMARK   96  A    between atoms: O3'_238  and  P_250
REMARK   97  A    between atoms: C2'_239  and  O2'_240
REMARK   98  A    between atoms: C1'_241  and  N1_242
REMARK   99  A    between atoms: P_250  and  OP1_251
REMARK  100  A    between atoms: P_250  and  O5'_253
REMARK  101  A    between atoms: O5'_253  and  C5'_254
REMARK  102  A    between atoms: C5'_254  and  C4'_255
REMARK  103  A    between atoms: C3'_257  and  O3'_258
REMARK  104  A    between atoms: O3'_258  and  P_270
REMARK  105  A    between atoms: C2'_259  and  O2'_260
REMARK  106  A    between atoms: C1'_261  and  N1_262
REMARK  107  A    between atoms: P_270  and  OP1_271
REMARK  108  A    between atoms: P_270  and  O5'_273
REMARK  109  A    between atoms: O5'_273  and  C5'_274
REMARK  110  A    between atoms: C5'_274  and  C4'_275
REMARK  111  A    between atoms: C3'_277  and  O3'_278
REMARK  112  A    between atoms: O3'_278  and  P_292
REMARK  113  A    between atoms: C2'_279  and  O2'_280
REMARK  114  A    between atoms: C1'_281  and  N9_282
REMARK  115  A    between atoms: C6_286  and  N6_287
REMARK  116  A    between atoms: P_292  and  OP1_293
REMARK  117  A    between atoms: P_292  and  O5'_295
REMARK  118  A    between atoms: O5'_295  and  C5'_296
REMARK  119  A    between atoms: C5'_296  and  C4'_297
REMARK  120  A    between atoms: C3'_299  and  O3'_300
REMARK  121  A    between atoms: O3'_300  and  P_312
REMARK  122  A    between atoms: C2'_301  and  O2'_302
REMARK  123  A    between atoms: C1'_303  and  N1_304
REMARK  124  A    between atoms: P_312  and  OP1_313
REMARK  125  A    between atoms: P_312  and  O5'_315
REMARK  126  A    between atoms: O5'_315  and  C5'_316
REMARK  127  A    between atoms: C5'_316  and  C4'_317
REMARK  128  A    between atoms: C3'_319  and  O3'_320
REMARK  129  A    between atoms: O3'_320  and  P_332
REMARK  130  A    between atoms: C2'_321  and  O2'_322
REMARK  131  A    between atoms: C1'_323  and  N1_324
REMARK  132  A    between atoms: P_332  and  OP2_334
REMARK  133  A    between atoms: P_332  and  O5'_335
REMARK  134  A    between atoms: O5'_335  and  C5'_336
REMARK  135  A    between atoms: C5'_336  and  C4'_337
REMARK  136  A    between atoms: C3'_339  and  O3'_340
REMARK  137  A    between atoms: O3'_340  and  P_352
REMARK  138  A    between atoms: C2'_341  and  O2'_342
REMARK  139  A    between atoms: C1'_343  and  N1_344
REMARK  140  A    between atoms: P_352  and  OP1_353
REMARK  141  A    between atoms: P_352  and  O5'_355
REMARK  142  A    between atoms: O5'_355  and  C5'_356
REMARK  143  A    between atoms: C5'_356  and  C4'_357
REMARK  144  A    between atoms: C3'_359  and  O3'_360
REMARK  145  A    between atoms: O3'_360  and  P_375
REMARK  146  A    between atoms: C2'_361  and  O2'_362
REMARK  147  A    between atoms: C1'_363  and  N9_364
REMARK  148  A    between atoms: P_375  and  OP1_376
REMARK  149  A    between atoms: P_375  and  O5'_378
REMARK  150  A    between atoms: O5'_378  and  C5'_379
REMARK  151  A    between atoms: C5'_379  and  C4'_380
REMARK  152  A    between atoms: C3'_382  and  O3'_383
REMARK  153  A    between atoms: O3'_383  and  P_397
REMARK  154  A    between atoms: C2'_384  and  O2'_385
REMARK  155  A    between atoms: C1'_386  and  N9_387
REMARK  156  A    between atoms: C6_391  and  N6_392
REMARK  157  A    between atoms: P_397  and  OP1_398
REMARK  158  A    between atoms: P_397  and  O5'_400
REMARK  159  A    between atoms: O5'_400  and  C5'_401
REMARK  160  A    between atoms: C5'_401  and  C4'_402
REMARK  161  A    between atoms: C3'_404  and  O3'_405
REMARK  162  A    between atoms: O3'_405  and  P_419
REMARK  163  A    between atoms: C2'_406  and  O2'_407
REMARK  164  A    between atoms: C1'_408  and  N9_409
REMARK  165  A    between atoms: C6_413  and  N6_414
REMARK  166  A    between atoms: P_419  and  OP1_420
REMARK  167  A    between atoms: P_419  and  O5'_422
REMARK  168  A    between atoms: O5'_422  and  C5'_423
REMARK  169  A    between atoms: C5'_423  and  C4'_424
REMARK  170  A    between atoms: C3'_426  and  O3'_427
REMARK  171  A    between atoms: O3'_427  and  P_441
REMARK  172  A    between atoms: C2'_428  and  O2'_429
REMARK  173  A    between atoms: C1'_430  and  N9_431
REMARK  174  A    between atoms: C6_435  and  N6_436
REMARK  175  A    between atoms: P_441  and  OP2_443
REMARK  176  A    between atoms: P_441  and  O5'_444
REMARK  177  A    between atoms: O5'_444  and  C5'_445
REMARK  178  A    between atoms: C5'_445  and  C4'_446
REMARK  179  A    between atoms: C3'_448  and  O3'_449
REMARK  180  A    between atoms: O3'_449  and  P_461
REMARK  181  A    between atoms: C2'_450  and  O2'_451
REMARK  182  A    between atoms: C1'_452  and  N1_453
REMARK  183  A    between atoms: P_461  and  OP2_463
REMARK  184  A    between atoms: P_461  and  O5'_464
REMARK  185  A    between atoms: O5'_464  and  C5'_465
REMARK  186  A    between atoms: C5'_465  and  C4'_466
REMARK  187  A    between atoms: C3'_468  and  O3'_469
REMARK  188  A    between atoms: O3'_469  and  P_481
REMARK  189  A    between atoms: C2'_470  and  O2'_471
REMARK  190  A    between atoms: C1'_472  and  N1_473
REMARK  191  A    between atoms: P_481  and  OP2_483
REMARK  192  A    between atoms: P_481  and  O5'_484
REMARK  193  A    between atoms: O5'_484  and  C5'_485
REMARK  194  A    between atoms: C5'_485  and  C4'_486
REMARK  195  A    between atoms: C3'_488  and  O3'_489
REMARK  196  A    between atoms: O3'_489  and  P_501
REMARK  197  A    between atoms: C2'_490  and  O2'_491
REMARK  198  A    between atoms: C1'_492  and  N1_493
REMARK  199  A    between atoms: P_501  and  OP2_503
REMARK  200  A    between atoms: P_501  and  O5'_504
REMARK  201  A    between atoms: O5'_504  and  C5'_505
REMARK  202  A    between atoms: C5'_505  and  C4'_506
REMARK  203  A    between atoms: C3'_508  and  O3'_509
REMARK  204  A    between atoms: O3'_509  and  P_521
REMARK  205  A    between atoms: C2'_510  and  O2'_511
REMARK  206  A    between atoms: C1'_512  and  N1_513
REMARK  207  A    between atoms: P_521  and  OP2_523
REMARK  208  A    between atoms: P_521  and  O5'_524
REMARK  209  A    between atoms: O5'_524  and  C5'_525
REMARK  210  A    between atoms: C5'_525  and  C4'_526
REMARK  211  A    between atoms: C3'_528  and  O3'_529
REMARK  212  A    between atoms: O3'_529  and  P_541
REMARK  213  A    between atoms: C2'_530  and  O2'_531
REMARK  214  A    between atoms: C1'_532  and  N1_533
REMARK  215  A    between atoms: P_541  and  OP2_543
REMARK  216  A    between atoms: P_541  and  O5'_544
REMARK  217  A    between atoms: O5'_544  and  C5'_545
REMARK  218  A    between atoms: C5'_545  and  C4'_546
REMARK  219  A    between atoms: C3'_548  and  O3'_549
REMARK  220  A    between atoms: O3'_549  and  P_561
REMARK  221  A    between atoms: C2'_550  and  O2'_551
REMARK  222  A    between atoms: C1'_552  and  N1_553
REMARK  223  A    between atoms: P_561  and  OP1_562
REMARK  224  A    between atoms: P_561  and  O5'_564
REMARK  225  A    between atoms: O5'_564  and  C5'_565
REMARK  226  A    between atoms: C5'_565  and  C4'_566
REMARK  227  A    between atoms: C3'_568  and  O3'_569
REMARK  228  A    between atoms: O3'_569  and  P_581
REMARK  229  A    between atoms: C2'_570  and  O2'_571
REMARK  230  A    between atoms: C1'_572  and  N1_573
REMARK  231  A    between atoms: P_581  and  OP1_582
REMARK  232  A    between atoms: P_581  and  O5'_584
REMARK  233  A    between atoms: O5'_584  and  C5'_585
REMARK  234  A    between atoms: C5'_585  and  C4'_586
REMARK  235  A    between atoms: C3'_588  and  O3'_589
REMARK  236  A    between atoms: O3'_589  and  P_603
REMARK  237  A    between atoms: C2'_590  and  O2'_591
REMARK  238  A    between atoms: C1'_592  and  N9_593
REMARK  239  A    between atoms: C6_597  and  N6_598
REMARK  240  A    between atoms: P_603  and  OP1_604
REMARK  241  A    between atoms: P_603  and  O5'_606
REMARK  242  A    between atoms: O5'_606  and  C5'_607
REMARK  243  A    between atoms: C5'_607  and  C4'_608
REMARK  244  A    between atoms: C3'_610  and  O3'_611
REMARK  245  A    between atoms: O3'_611  and  P_625
REMARK  246  A    between atoms: C2'_612  and  O2'_613
REMARK  247  A    between atoms: C1'_614  and  N9_615
REMARK  248  A    between atoms: C6_619  and  N6_620
REMARK  249  A    between atoms: P_625  and  OP1_626
REMARK  250  A    between atoms: P_625  and  O5'_628
REMARK  251  A    between atoms: O5'_628  and  C5'_629
REMARK  252  A    between atoms: C5'_629  and  C4'_630
REMARK  253  A    between atoms: C3'_632  and  O3'_633
REMARK  254  A    between atoms: O3'_633  and  P_647
REMARK  255  A    between atoms: C2'_634  and  O2'_635
REMARK  256  A    between atoms: C1'_636  and  N9_637
REMARK  257  A    between atoms: C6_641  and  N6_642
REMARK  258  A    between atoms: P_647  and  OP1_648
REMARK  259  A    between atoms: P_647  and  O5'_650
REMARK  260  A    between atoms: O5'_650  and  C5'_651
REMARK  261  A    between atoms: C5'_651  and  C4'_652
REMARK  262  A    between atoms: C3'_654  and  O3'_655
REMARK  263  A    between atoms: O3'_655  and  P_669
REMARK  264  A    between atoms: C2'_656  and  O2'_657
REMARK  265  A    between atoms: C1'_658  and  N9_659
REMARK  266  A    between atoms: P_669  and  OP2_671
REMARK  267  A    between atoms: P_669  and  O5'_672
REMARK  268  A    between atoms: O5'_672  and  C5'_673
REMARK  269  A    between atoms: C5'_673  and  C4'_674
REMARK  270  A    between atoms: C3'_676  and  O3'_677
REMARK  271  A    between atoms: O3'_677  and  P_689
REMARK  272  A    between atoms: C2'_678  and  O2'_679
REMARK  273  A    between atoms: C1'_680  and  N1_681
REMARK  274  A    between atoms: P_689  and  OP2_691
REMARK  275  A    between atoms: P_689  and  O5'_692
REMARK  276  A    between atoms: O5'_692  and  C5'_693
REMARK  277  A    between atoms: C5'_693  and  C4'_694
REMARK  278  A    between atoms: C3'_696  and  O3'_697
REMARK  279  A    between atoms: O3'_697  and  P_711
REMARK  280  A    between atoms: C2'_698  and  O2'_699
REMARK  281  A    between atoms: C1'_700  and  N9_701
REMARK  282  A    between atoms: P_711  and  OP2_713
REMARK  283  A    between atoms: P_711  and  O5'_714
REMARK  284  A    between atoms: O5'_714  and  C5'_715
REMARK  285  A    between atoms: C5'_715  and  C4'_716
REMARK  286  A    between atoms: C3'_718  and  O3'_719
REMARK  287  A    between atoms: O3'_719  and  P_733
REMARK  288  A    between atoms: C2'_720  and  O2'_721
REMARK  289  A    between atoms: C1'_722  and  N9_723
REMARK  290  A    between atoms: P_733  and  OP2_735
REMARK  291  A    between atoms: P_733  and  O5'_736
REMARK  292  A    between atoms: O5'_736  and  C5'_737
REMARK  293  A    between atoms: C5'_737  and  C4'_738
REMARK  294  A    between atoms: C3'_740  and  O3'_741
REMARK  295  A    between atoms: O3'_741  and  P_753
REMARK  296  A    between atoms: C2'_742  and  O2'_743
REMARK  297  A    between atoms: C1'_744  and  N1_745
REMARK  298  A    between atoms: P_753  and  OP1_754
REMARK  299  A    between atoms: P_753  and  O5'_756
REMARK  300  A    between atoms: O5'_756  and  C5'_757
REMARK  301  A    between atoms: C5'_757  and  C4'_758
REMARK  302  A    between atoms: C3'_760  and  O3'_761
REMARK  303  A    between atoms: O3'_761  and  P_775
REMARK  304  A    between atoms: C2'_762  and  O2'_763
REMARK  305  A    between atoms: C1'_764  and  N9_765
REMARK  306  A    between atoms: C6_769  and  N6_770
REMARK  307  A    between atoms: P_775  and  OP1_776
REMARK  308  A    between atoms: P_775  and  O5'_778
REMARK  309  A    between atoms: O5'_778  and  C5'_779
REMARK  310  A    between atoms: C5'_779  and  C4'_780
REMARK  311  A    between atoms: C3'_782  and  O3'_783
REMARK  312  A    between atoms: O3'_783  and  P_795
REMARK  313  A    between atoms: C2'_784  and  O2'_785
REMARK  314  A    between atoms: C1'_786  and  N1_787
REMARK  315  A    between atoms: P_795  and  OP1_796
REMARK  316  A    between atoms: P_795  and  O5'_798
REMARK  317  A    between atoms: O5'_798  and  C5'_799
REMARK  318  A    between atoms: C5'_799  and  C4'_800
REMARK  319  A    between atoms: C3'_802  and  O3'_803
REMARK  320  A    between atoms: O3'_803  and  P_815
REMARK  321  A    between atoms: C2'_804  and  O2'_805
REMARK  322  A    between atoms: C1'_806  and  N1_807
REMARK  323  A    between atoms: P_815  and  OP1_816
REMARK  324  A    between atoms: P_815  and  O5'_818
REMARK  325  A    between atoms: O5'_818  and  C5'_819
REMARK  326  A    between atoms: C5'_819  and  C4'_820
REMARK  327  A    between atoms: C3'_822  and  O3'_823
REMARK  328  A    between atoms: O3'_823  and  P_835
REMARK  329  A    between atoms: C2'_824  and  O2'_825
REMARK  330  A    between atoms: C1'_826  and  N1_827
REMARK  331  A    between atoms: P_835  and  OP2_837
REMARK  332  A    between atoms: P_835  and  O5'_838
REMARK  333  A    between atoms: O5'_838  and  C5'_839
REMARK  334  A    between atoms: C5'_839  and  C4'_840
REMARK  335  A    between atoms: C3'_842  and  O3'_843
REMARK  336  A    between atoms: O3'_843  and  P_855
REMARK  337  A    between atoms: C2'_844  and  O2'_845
REMARK  338  A    between atoms: C1'_846  and  N1_847
REMARK  339  A    between atoms: P_855  and  OP2_857
REMARK  340  A    between atoms: P_855  and  O5'_858
REMARK  341  A    between atoms: O5'_858  and  C5'_859
REMARK  342  A    between atoms: C5'_859  and  C4'_860
REMARK  343  A    between atoms: C3'_862  and  O3'_863
REMARK  344  A    between atoms: O3'_863  and  P_875
REMARK  345  A    between atoms: C2'_864  and  O2'_865
REMARK  346  A    between atoms: C1'_866  and  N1_867
REMARK  347  A    between atoms: P_875  and  OP2_877
REMARK  348  A    between atoms: P_875  and  O5'_878
REMARK  349  A    between atoms: O5'_878  and  C5'_879
REMARK  350  A    between atoms: C5'_879  and  C4'_880
REMARK  351  A    between atoms: C3'_882  and  O3'_883
REMARK  352  A    between atoms: O3'_883  and  P_897
REMARK  353  A    between atoms: C2'_884  and  O2'_885
REMARK  354  A    between atoms: C1'_886  and  N9_887
REMARK  355  A    between atoms: P_897  and  OP2_899
REMARK  356  A    between atoms: P_897  and  O5'_900
REMARK  357  A    between atoms: O5'_900  and  C5'_901
REMARK  358  A    between atoms: C5'_901  and  C4'_902
REMARK  359  A    between atoms: C3'_904  and  O3'_905
REMARK  360  A    between atoms: O3'_905  and  P_917
REMARK  361  A    between atoms: C2'_906  and  O2'_907
REMARK  362  A    between atoms: C1'_908  and  N1_909
REMARK  363  A    between atoms: P_917  and  OP1_918
REMARK  364  A    between atoms: P_917  and  O5'_920
REMARK  365  A    between atoms: O5'_920  and  C5'_921
REMARK  366  A    between atoms: C5'_921  and  C4'_922
REMARK  367  A    between atoms: C3'_924  and  O3'_925
REMARK  368  A    between atoms: O3'_925  and  P_937
REMARK  369  A    between atoms: C2'_926  and  O2'_927
REMARK  370  A    between atoms: C1'_928  and  N1_929
REMARK  371  A    between atoms: P_937  and  OP1_938
REMARK  372  A    between atoms: P_937  and  O5'_940
REMARK  373  A    between atoms: O5'_940  and  C5'_941
REMARK  374  A    between atoms: C5'_941  and  C4'_942
REMARK  375  A    between atoms: C3'_944  and  O3'_945
REMARK  376  A    between atoms: O3'_945  and  P_957
REMARK  377  A    between atoms: C2'_946  and  O2'_947
REMARK  378  A    between atoms: C1'_948  and  N1_949
REMARK  379  A    between atoms: P_957  and  OP2_959
REMARK  380  A    between atoms: P_957  and  O5'_960
REMARK  381  A    between atoms: O5'_960  and  C5'_961
REMARK  382  A    between atoms: C5'_961  and  C4'_962
REMARK  383  A    between atoms: C3'_964  and  O3'_965
REMARK  384  A    between atoms: O3'_965  and  P_977
REMARK  385  A    between atoms: C2'_966  and  O2'_967
REMARK  386  A    between atoms: C1'_968  and  N1_969
REMARK  387  A    between atoms: P_977  and  OP2_979
REMARK  388  A    between atoms: P_977  and  O5'_980
REMARK  389  A    between atoms: O5'_980  and  C5'_981
REMARK  390  A    between atoms: C5'_981  and  C4'_982
REMARK  391  A    between atoms: C3'_984  and  O3'_985
REMARK  392  A    between atoms: O3'_985  and  P_999
REMARK  393  A    between atoms: C2'_986  and  O2'_987
REMARK  394  A    between atoms: C1'_988  and  N9_989
REMARK  395  A    between atoms: P_999  and  OP2_1001
REMARK  396  A    between atoms: P_999  and  O5'_1002
REMARK  397  A    between atoms: O5'_1002  and  C5'_1003
REMARK  398  A    between atoms: C5'_1003  and  C4'_1004
REMARK  399  A    between atoms: C3'_1006  and  O3'_1007
REMARK  400  A    between atoms: O3'_1007  and  P_1019
REMARK  401  A    between atoms: C2'_1008  and  O2'_1009
REMARK  402  A    between atoms: C1'_1010  and  N1_1011
REMARK  403  A    between atoms: P_1019  and  OP2_1021
REMARK  404  A    between atoms: P_1019  and  O5'_1022
REMARK  405  A    between atoms: O5'_1022  and  C5'_1023
REMARK  406  A    between atoms: C5'_1023  and  C4'_1024
REMARK  407  A    between atoms: C3'_1026  and  O3'_1027
REMARK  408  A    between atoms: O3'_1027  and  P_1039
REMARK  409  A    between atoms: C2'_1028  and  O2'_1029
REMARK  410  A    between atoms: C1'_1030  and  N1_1031
REMARK  411  A    between atoms: P_1039  and  OP2_1041
REMARK  412  A    between atoms: P_1039  and  O5'_1042
REMARK  413  A    between atoms: O5'_1042  and  C5'_1043
REMARK  414  A    between atoms: C5'_1043  and  C4'_1044
REMARK  415  A    between atoms: C3'_1046  and  O3'_1047
REMARK  416  A    between atoms: O3'_1047  and  P_1059
REMARK  417  A    between atoms: C2'_1048  and  O2'_1049
REMARK  418  A    between atoms: C1'_1050  and  N1_1051
REMARK  419  A    between atoms: P_1059  and  OP2_1061
REMARK  420  A    between atoms: P_1059  and  O5'_1062
REMARK  421  A    between atoms: O5'_1062  and  C5'_1063
REMARK  422  A    between atoms: C5'_1063  and  C4'_1064
REMARK  423  A    between atoms: C3'_1066  and  O3'_1067
REMARK  424  A    between atoms: O3'_1067  and  P_1079
REMARK  425  A    between atoms: C2'_1068  and  O2'_1069
REMARK  426  A    between atoms: C1'_1070  and  N1_1071
REMARK  427  A    between atoms: P_1079  and  OP1_1080
REMARK  428  A    between atoms: P_1079  and  O5'_1082
REMARK  429  A    between atoms: O5'_1082  and  C5'_1083
REMARK  430  A    between atoms: C5'_1083  and  C4'_1084
REMARK  431  A    between atoms: C3'_1086  and  O3'_1087
REMARK  432  A    between atoms: O3'_1087  and  P_1101
REMARK  433  A    between atoms: C2'_1088  and  O2'_1089
REMARK  434  A    between atoms: C1'_1090  and  N9_1091
REMARK  435  A    between atoms: C6_1095  and  N6_1096
REMARK  436  A    between atoms: P_1101  and  OP1_1102
REMARK  437  A    between atoms: P_1101  and  O5'_1104
REMARK  438  A    between atoms: O5'_1104  and  C5'_1105
REMARK  439  A    between atoms: C5'_1105  and  C4'_1106
REMARK  440  A    between atoms: C3'_1108  and  O3'_1109
REMARK  441  A    between atoms: O3'_1109  and  P_1123
REMARK  442  A    between atoms: C2'_1110  and  O2'_1111
REMARK  443  A    between atoms: C1'_1112  and  N9_1113
REMARK  444  A    between atoms: C6_1117  and  N6_1118
REMARK  445  A    between atoms: P_1123  and  OP1_1124
REMARK  446  A    between atoms: P_1123  and  O5'_1126
REMARK  447  A    between atoms: O5'_1126  and  C5'_1127
REMARK  448  A    between atoms: C5'_1127  and  C4'_1128
REMARK  449  A    between atoms: C3'_1130  and  O3'_1131
REMARK  450  A    between atoms: O3'_1131  and  P_1145
REMARK  451  A    between atoms: C2'_1132  and  O2'_1133
REMARK  452  A    between atoms: C1'_1134  and  N9_1135
REMARK  453  A    between atoms: C6_1139  and  N6_1140
REMARK  454  A    between atoms: P_1145  and  OP1_1146
REMARK  455  A    between atoms: P_1145  and  O5'_1148
REMARK  456  A    between atoms: O5'_1148  and  C5'_1149
REMARK  457  A    between atoms: C5'_1149  and  C4'_1150
REMARK  458  A    between atoms: C3'_1152  and  O3'_1153
REMARK  459  A    between atoms: O3'_1153  and  P_1167
REMARK  460  A    between atoms: C2'_1154  and  O2'_1155
REMARK  461  A    between atoms: C1'_1156  and  N9_1157
REMARK  462  A    between atoms: C6_1161  and  N6_1162
REMARK  463  A    between atoms: P_1167  and  OP1_1168
REMARK  464  A    between atoms: P_1167  and  O5'_1170
REMARK  465  A    between atoms: O5'_1170  and  C5'_1171
REMARK  466  A    between atoms: C5'_1171  and  C4'_1172
REMARK  467  A    between atoms: C3'_1174  and  O3'_1175
REMARK  468  A    between atoms: O3'_1175  and  P_1189
REMARK  469  A    between atoms: C2'_1176  and  O2'_1177
REMARK  470  A    between atoms: C1'_1178  and  N9_1179
REMARK  471  A    between atoms: C6_1183  and  N6_1184
REMARK  472  A    between atoms: P_1189  and  OP1_1190
REMARK  473  A    between atoms: P_1189  and  O5'_1192
REMARK  474  A    between atoms: O5'_1192  and  C5'_1193
REMARK  475  A    between atoms: C5'_1193  and  C4'_1194
REMARK  476  A    between atoms: C3'_1196  and  O3'_1197
REMARK  477  A    between atoms: O3'_1197  and  P_1209
REMARK  478  A    between atoms: C2'_1198  and  O2'_1199
REMARK  479  A    between atoms: C1'_1200  and  N1_1201
REMARK  480  A    between atoms: P_1209  and  OP2_1211
REMARK  481  A    between atoms: P_1209  and  O5'_1212
REMARK  482  A    between atoms: O5'_1212  and  C5'_1213
REMARK  483  A    between atoms: C5'_1213  and  C4'_1214
REMARK  484  A    between atoms: C3'_1216  and  O3'_1217
REMARK  485  A    between atoms: O3'_1217  and  P_1231
REMARK  486  A    between atoms: C2'_1218  and  O2'_1219
REMARK  487  A    between atoms: C1'_1220  and  N9_1221
REMARK  488  A    between atoms: P_1231  and  OP2_1233
REMARK  489  A    between atoms: P_1231  and  O5'_1234
REMARK  490  A    between atoms: O5'_1234  and  C5'_1235
REMARK  491  A    between atoms: C5'_1235  and  C4'_1236
REMARK  492  A    between atoms: C3'_1238  and  O3'_1239
REMARK  493  A    between atoms: O3'_1239  and  P_1254
REMARK  494  A    between atoms: C2'_1240  and  O2'_1241
REMARK  495  A    between atoms: C1'_1242  and  N9_1243
REMARK  496  A    between atoms: P_1254  and  OP2_1256
REMARK  497  A    between atoms: P_1254  and  O5'_1257
REMARK  498  A    between atoms: O5'_1257  and  C5'_1258
REMARK  499  A    between atoms: C5'_1258  and  C4'_1259
REMARK  500  A    between atoms: C3'_1261  and  O3'_1262
REMARK  501  A    between atoms: O3'_1262  and  P_1276
REMARK  502  A    between atoms: C2'_1263  and  O2'_1264
REMARK  503  A    between atoms: C1'_1265  and  N9_1266
REMARK  504  A    between atoms: C6_1270  and  N6_1271
REMARK  505  A    between atoms: P_1276  and  OP1_1277
REMARK  506  A    between atoms: P_1276  and  O5'_1279
REMARK  507  A    between atoms: O5'_1279  and  C5'_1280
REMARK  508  A    between atoms: C5'_1280  and  C4'_1281
REMARK  509  A    between atoms: C3'_1283  and  O3'_1284
REMARK  510  A    between atoms: O3'_1284  and  P_1296
REMARK  511  A    between atoms: C2'_1285  and  O2'_1286
REMARK  512  A    between atoms: C1'_1287  and  N1_1288
REMARK  513  A    between atoms: P_1296  and  OP1_1297
REMARK  514  A    between atoms: P_1296  and  O5'_1299
REMARK  515  A    between atoms: O5'_1299  and  C5'_1300
REMARK  516  A    between atoms: C5'_1300  and  C4'_1301
REMARK  517  A    between atoms: C3'_1303  and  O3'_1304
REMARK  518  A    between atoms: O3'_1304  and  P_1316
REMARK  519  A    between atoms: C2'_1305  and  O2'_1306
REMARK  520  A    between atoms: C1'_1307  and  N1_1308
REMARK  521  A    between atoms: P_1316  and  OP2_1318
REMARK  522  A    between atoms: P_1316  and  O5'_1319
REMARK  523  A    between atoms: O5'_1319  and  C5'_1320
REMARK  524  A    between atoms: C5'_1320  and  C4'_1321
REMARK  525  A    between atoms: C3'_1323  and  O3'_1324
REMARK  526  A    between atoms: O3'_1324  and  P_1338
REMARK  527  A    between atoms: C2'_1325  and  O2'_1326
REMARK  528  A    between atoms: C1'_1327  and  N9_1328
REMARK  529  A    between atoms: P_1338  and  OP2_1340
REMARK  530  A    between atoms: P_1338  and  O5'_1341
REMARK  531  A    between atoms: O5'_1341  and  C5'_1342
REMARK  532  A    between atoms: C5'_1342  and  C4'_1343
REMARK  533  A    between atoms: C3'_1345  and  O3'_1346
REMARK  534  A    between atoms: O3'_1346  and  P_1358
REMARK  535  A    between atoms: C2'_1347  and  O2'_1348
REMARK  536  A    between atoms: C1'_1349  and  N1_1350
REMARK  537  A    between atoms: P_1358  and  OP2_1360
REMARK  538  A    between atoms: P_1358  and  O5'_1361
REMARK  539  A    between atoms: O5'_1361  and  C5'_1362
REMARK  540  A    between atoms: C5'_1362  and  C4'_1363
REMARK  541  A    between atoms: C3'_1365  and  O3'_1366
REMARK  542  A    between atoms: O3'_1366  and  P_1380
REMARK  543  A    between atoms: C2'_1367  and  O2'_1368
REMARK  544  A    between atoms: C1'_1369  and  N9_1370
REMARK  545  A    between atoms: P_1380  and  OP2_1382
REMARK  546  A    between atoms: P_1380  and  O5'_1383
REMARK  547  A    between atoms: O5'_1383  and  C5'_1384
REMARK  548  A    between atoms: C5'_1384  and  C4'_1385
REMARK  549  A    between atoms: C3'_1387  and  O3'_1388
REMARK  550  A    between atoms: O3'_1388  and  P_1402
REMARK  551  A    between atoms: C2'_1389  and  O2'_1390
REMARK  552  A    between atoms: C1'_1391  and  N9_1392
REMARK  553  A    between atoms: P_1402  and  OP2_1404
REMARK  554  A    between atoms: P_1402  and  O5'_1405
REMARK  555  A    between atoms: O5'_1405  and  C5'_1406
REMARK  556  A    between atoms: C5'_1406  and  C4'_1407
REMARK  557  A    between atoms: C3'_1409  and  O3'_1410
REMARK  558  A    between atoms: O3'_1410  and  P_1424
REMARK  559  A    between atoms: C2'_1411  and  O2'_1412
REMARK  560  A    between atoms: C1'_1413  and  N9_1414
REMARK  561  A    between atoms: P_1424  and  OP2_1426
REMARK  562  A    between atoms: P_1424  and  O5'_1427
REMARK  563  A    between atoms: O5'_1427  and  C5'_1428
REMARK  564  A    between atoms: C5'_1428  and  C4'_1429
REMARK  565  A    between atoms: C3'_1431  and  O3'_1432
REMARK  566  A    between atoms: O3'_1432  and  P_1446
REMARK  567  A    between atoms: C2'_1433  and  O2'_1434
REMARK  568  A    between atoms: C1'_1435  and  N9_1436
REMARK  569  A    between atoms: P_1446  and  OP2_1448
REMARK  570  A    between atoms: P_1446  and  O5'_1449
REMARK  571  A    between atoms: O5'_1449  and  C5'_1450
REMARK  572  A    between atoms: C5'_1450  and  C4'_1451
REMARK  573  A    between atoms: C3'_1453  and  O3'_1454
REMARK  574  A    between atoms: O3'_1454  and  P_1468
REMARK  575  A    between atoms: C2'_1455  and  O2'_1456
REMARK  576  A    between atoms: C1'_1457  and  N9_1458
REMARK  577  A    between atoms: P_1468  and  OP2_1470
REMARK  578  A    between atoms: P_1468  and  O5'_1471
REMARK  579  A    between atoms: O5'_1471  and  C5'_1472
REMARK  580  A    between atoms: C5'_1472  and  C4'_1473
REMARK  581  A    between atoms: C3'_1475  and  O3'_1476
REMARK  582  A    between atoms: O3'_1476  and  P_1488
REMARK  583  A    between atoms: C2'_1477  and  O2'_1478
REMARK  584  A    between atoms: C1'_1479  and  N1_1480
REMARK  585  A    between atoms: P_1488  and  OP1_1489
REMARK  586  A    between atoms: P_1488  and  O5'_1491
REMARK  587  A    between atoms: O5'_1491  and  C5'_1492
REMARK  588  A    between atoms: C5'_1492  and  C4'_1493
REMARK  589  A    between atoms: C3'_1495  and  O3'_1496
REMARK  590  A    between atoms: O3'_1496  and  P_1508
REMARK  591  A    between atoms: C2'_1497  and  O2'_1498
REMARK  592  A    between atoms: C1'_1499  and  N1_1500
REMARK  593  A    between atoms: P_1508  and  OP2_1510
REMARK  594  A    between atoms: P_1508  and  O5'_1511
REMARK  595  A    between atoms: O5'_1511  and  C5'_1512
REMARK  596  A    between atoms: C5'_1512  and  C4'_1513
REMARK  597  A    between atoms: C3'_1515  and  O3'_1516
REMARK  598  A    between atoms: O3'_1516  and  P_1528
REMARK  599  A    between atoms: C2'_1517  and  O2'_1518
REMARK  600  A    between atoms: C1'_1519  and  N1_1520
REMARK  601  A    between atoms: P_1528  and  OP1_1529
REMARK  602  A    between atoms: P_1528  and  O5'_1531
REMARK  603  A    between atoms: O5'_1531  and  C5'_1532
REMARK  604  A    between atoms: C5'_1532  and  C4'_1533
REMARK  605  A    between atoms: C3'_1535  and  O3'_1536
REMARK  606  A    between atoms: O3'_1536  and  P_1548
REMARK  607  A    between atoms: C2'_1537  and  O2'_1538
REMARK  608  A    between atoms: C1'_1539  and  N1_1540
REMARK  609  A    between atoms: P_1548  and  OP1_1549
REMARK  610  A    between atoms: P_1548  and  O5'_1551
REMARK  611  A    between atoms: O5'_1551  and  C5'_1552
REMARK  612  A    between atoms: C5'_1552  and  C4'_1553
REMARK  613  A    between atoms: C3'_1555  and  O3'_1556
REMARK  614  A    between atoms: O3'_1556  and  P_1568
REMARK  615  A    between atoms: C2'_1557  and  O2'_1558
REMARK  616  A    between atoms: C1'_1559  and  N1_1560
REMARK  617  A    between atoms: P_1568  and  OP1_1569
REMARK  618  A    between atoms: P_1568  and  O5'_1571
REMARK  619  A    between atoms: O5'_1571  and  C5'_1572
REMARK  620  A    between atoms: C5'_1572  and  C4'_1573
REMARK  621  A    between atoms: C3'_1575  and  O3'_1576
REMARK  622  A    between atoms: C2'_1577  and  O2'_1578
REMARK  623  A    between atoms: C1'_1579  and  N9_1580
REMARK  624  A    between atoms: C6_1584  and  N6_1585
REMARK                            x       y       z     vdW  Elec       q    Type
REMARK                         _______ _______ _______ _____ _____    ______ ____
ROOT
ATOM      1  P   U   B  39     -11.241  18.690  24.729  0.00  0.00    +0.000 P 
ATOM      2  OP2 U   B  39     -11.116  18.247  23.319  0.00  0.00    +0.000 OA
ENDROOT
BRANCH   1   3
ATOM      3  OP1 U   B  39     -12.542  18.616  25.423  0.00  0.00    +0.000 OA
ATOM      4  H   U   B  39     -13.208  19.103  24.913  0.00  0.00    +0.000 HD
ENDBRANCH   1   3
BRANCH   1   5
ATOM      5  O5' U   B  39     -10.708  20.184  24.823  0.00  0.00    +0.000 OA
BRANCH   5   6
ATOM      6  C5' U   B  39     -10.505  20.823  26.065  0.00  0.00    +0.000 C 
BRANCH   6   7
ATOM      7  C4' U   B  39      -9.746  22.113  25.884  0.00  0.00    +0.000 C 
ATOM      8  O4' U   B  39      -8.430  21.821  25.372  0.00  0.00    +0.000 OA
ATOM      9  C3' U   B  39     -10.337  23.090  24.901  0.00  0.00    +0.000 C 
ATOM     10  C2' U   B  39      -9.128  23.893  24.411  0.00  0.00    +0.000 C 
ATOM     11  C1' U   B  39      -7.976  22.905  24.634  0.00  0.00    +0.000 C 
BRANCH  11  12
ATOM     12  N1  U   B  39      -7.345  22.450  23.376  0.00  0.00    +0.000 N 
ATOM     13  C2  U   B  39      -7.947  21.517  22.589  0.00  0.00    +0.000 A 
ATOM     14  O2  U   B  39      -9.019  20.991  22.834  0.00  0.00    +0.000 OA
ATOM     15  N3  U   B  39      -7.248  21.163  21.459  0.00  0.00    +0.000 N 
ATOM     16  C4  U   B  39      -6.023  21.656  21.056  0.00  0.00    +0.000 A 
ATOM     17  O4  U   B  39      -5.515  21.248  20.010  0.00  0.00    +0.000 OA
ATOM     18  C5  U   B  39      -5.463  22.627  21.932  0.00  0.00    +0.000 A 
ATOM     19  C6  U   B  39      -6.117  22.979  23.039  0.00  0.00    +0.000 A 
ATOM     20  H   U   B  39      -7.665  20.487  20.876  0.00  0.00    +0.000 HD
ENDBRANCH  11  12
BRANCH  10  21
ATOM     21  O2' U   B  39      -8.923  25.051  25.202  0.00  0.00    +0.000 OA
ATOM     22  H   U   B  39      -8.821  24.794  26.132  0.00  0.00    +0.000 HD
ENDBRANCH  10  21
BRANCH   9  23
ATOM     23  O3' U   B  39     -11.313  23.917  25.520  0.00  0.00    +0.000 OA
BRANCH  23  24
ATOM     24  P   C   B  40     -12.883  23.715  25.295  0.00  0.00    +0.000 P 
ATOM     25  OP2 C   B  40     -13.070  22.904  24.080  0.00  0.00    +0.000 OA
BRANCH  24  26
ATOM     26  OP1 C   B  40     -13.517  23.271  26.569  0.00  0.00    +0.000 OA
ATOM     27  H   C   B  40     -14.469  23.149  26.431  0.00  0.00    +0.000 HD
ENDBRANCH  24  26
BRANCH  24  28
ATOM     28  O5' C   B  40     -13.388  25.201  24.985  0.00  0.00    +0.000 OA
BRANCH  28  29
ATOM     29  C5' C   B  40     -13.446  25.718  23.664  0.00  0.00    +0.000 C 
BRANCH  29  30
ATOM     30  C4' C   B  40     -13.756  27.191  23.702  0.00  0.00    +0.000 C 
ATOM     31  O4' C   B  40     -14.932  27.410  24.505  0.00  0.00    +0.000 OA
ATOM     32  C3' C   B  40     -12.690  28.063  24.334  0.00  0.00    +0.000 C 
ATOM     33  C2' C   B  40     -13.477  29.247  24.861  0.00  0.00    +0.000 C 
ATOM     34  C1' C   B  40     -14.802  28.590  25.255  0.00  0.00    +0.000 C 
BRANCH  34  35
ATOM     35  N1  C   B  40     -14.881  28.244  26.693  0.00  0.00    +0.000 N 
ATOM     36  C2  C   B  40     -15.006  29.267  27.634  0.00  0.00    +0.000 A 
ATOM     37  O2  C   B  40     -15.036  30.445  27.256  0.00  0.00    +0.000 OA
ATOM     38  N3  C   B  40     -15.093  28.943  28.949  0.00  0.00    +0.000 NA
ATOM     39  C4  C   B  40     -15.055  27.663  29.328  0.00  0.00    +0.000 A 
ATOM     40  N4  C   B  40     -15.140  27.402  30.635  0.00  0.00    +0.000 N 
ATOM     41  C5  C   B  40     -14.936  26.599  28.387  0.00  0.00    +0.000 A 
ATOM     42  C6  C   B  40     -14.856  26.932  27.088  0.00  0.00    +0.000 A 
ATOM     43  H   C   B  40     -15.116  26.471  30.954  0.00  0.00    +0.000 HD
ATOM     44  H   C   B  40     -15.227  28.141  31.280  0.00  0.00    +0.000 HD
ENDBRANCH  34  35
BRANCH  33  45
ATOM     45  O2' C   B  40     -13.714  30.206  23.852  0.00  0.00    +0.000 OA
ATOM     46  H   C   B  40     -14.172  29.786  23.108  0.00  0.00    +0.000 HD
ENDBRANCH  33  45
BRANCH  32  47
ATOM     47  O3' C   B  40     -11.691  28.452  23.406  0.00  0.00    +0.000 OA
BRANCH  47  48
ATOM     48  P   U   B  41     -10.300  27.823  23.270  0.00  0.00    +0.000 P 
ATOM     49  OP1 U   B  41     -10.232  27.107  21.984  0.00  0.00    +0.000 OA
BRANCH  48  50
ATOM     50  OP2 U   B  41      -9.961  27.115  24.529  0.00  0.00    +0.000 OA
ATOM     51  H   U   B  41      -9.081  26.715  24.448  0.00  0.00    +0.000 HD
ENDBRANCH  48  50
BRANCH  48  52
ATOM     52  O5' U   B  41      -9.359  29.125  23.169  0.00  0.00    +0.000 OA
BRANCH  52  53
ATOM     53  C5' U   B  41      -8.038  29.039  22.710  0.00  0.00    +0.000 C 
BRANCH  53  54
ATOM     54  C4' U   B  41      -7.072  29.556  23.748  0.00  0.00    +0.000 C 
ATOM     55  O4' U   B  41      -7.697  30.631  24.491  0.00  0.00    +0.000 OA
ATOM     56  C3' U   B  41      -6.668  28.545  24.807  0.00  0.00    +0.000 C 
ATOM     57  C2' U   B  41      -6.274  29.443  25.978  0.00  0.00    +0.000 C 
ATOM     58  C1' U   B  41      -7.278  30.595  25.832  0.00  0.00    +0.000 C 
BRANCH  58  59
ATOM     59  N1  U   B  41      -8.479  30.412  26.678  0.00  0.00    +0.000 N 
ATOM     60  C2  U   B  41      -8.485  31.030  27.911  0.00  0.00    +0.000 A 
ATOM     61  O2  U   B  41      -7.553  31.704  28.327  0.00  0.00    +0.000 OA
ATOM     62  N3  U   B  41      -9.623  30.832  28.654  0.00  0.00    +0.000 N 
ATOM     63  C4  U   B  41     -10.733  30.094  28.293  0.00  0.00    +0.000 A 
ATOM     64  O4  U   B  41     -11.682  30.007  29.070  0.00  0.00    +0.000 OA
ATOM     65  C5  U   B  41     -10.652  29.491  27.002  0.00  0.00    +0.000 A 
ATOM     66  C6  U   B  41      -9.556  29.669  26.257  0.00  0.00    +0.000 A 
ATOM     67  H   U   B  41      -9.650  31.262  29.539  0.00  0.00    +0.000 HD
ENDBRANCH  58  59
BRANCH  57  68
ATOM     68  O2' U   B  41      -4.965  29.959  25.816  0.00  0.00    +0.000 OA
ATOM     69  H   U   B  41      -4.906  30.431  24.971  0.00  0.00    +0.000 HD
ENDBRANCH  57  68
BRANCH  56  70
ATOM     70  O3' U   B  41      -5.617  27.698  24.364  0.00  0.00    +0.000 OA
BRANCH  70  71
ATOM     71  P   U   B  42      -5.685  26.111  24.557  0.00  0.00    +0.000 P 
ATOM     72  OP1 U   B  42      -4.654  25.491  23.688  0.00  0.00    +0.000 OA
BRANCH  71  73
ATOM     73  OP2 U   B  42      -7.103  25.675  24.465  0.00  0.00    +0.000 OA
ATOM     74  H   U   B  42      -7.411  25.767  23.550  0.00  0.00    +0.000 HD
ENDBRANCH  71  73
BRANCH  71  75
ATOM     75  O5' U   B  42      -5.212  25.948  26.064  0.00  0.00    +0.000 OA
BRANCH  75  76
ATOM     76  C5' U   B  42      -3.958  26.456  26.502  0.00  0.00    +0.000 C 
BRANCH  76  77
ATOM     77  C4' U   B  42      -3.912  26.559  28.003  0.00  0.00    +0.000 C 
ATOM     78  O4' U   B  42      -4.877  27.534  28.458  0.00  0.00    +0.000 OA
ATOM     79  C3' U   B  42      -4.280  25.289  28.763  0.00  0.00    +0.000 C 
ATOM     80  C2' U   B  42      -4.708  25.846  30.118  0.00  0.00    +0.000 C 
ATOM     81  C1' U   B  42      -5.407  27.135  29.701  0.00  0.00    +0.000 C 
BRANCH  81  82
ATOM     82  N1  U   B  42      -6.887  27.032  29.617  0.00  0.00    +0.000 N 
ATOM     83  C2  U   B  42      -7.595  25.867  29.925  0.00  0.00    +0.000 A 
ATOM     84  O2  U   B  42      -7.082  24.815  30.270  0.00  0.00    +0.000 OA
ATOM     85  N3  U   B  42      -8.957  25.942  29.807  0.00  0.00    +0.000 N 
ATOM     86  C4  U   B  42      -9.686  27.043  29.425  0.00  0.00    +0.000 A 
ATOM     87  O4  U   B  42     -10.918  26.968  29.368  0.00  0.00    +0.000 OA
ATOM     88  C5  U   B  42      -8.917  28.200  29.127  0.00  0.00    +0.000 A 
ATOM     89  C6  U   B  42      -7.572  28.169  29.237  0.00  0.00    +0.000 A 
ATOM     90  H   U   B  42      -9.465  25.125  30.017  0.00  0.00    +0.000 HD
ENDBRANCH  81  82
BRANCH  80  91
ATOM     91  O2' U   B  42      -3.575  26.161  30.907  0.00  0.00    +0.000 OA
ATOM     92  H   U   B  42      -3.002  26.773  30.420  0.00  0.00    +0.000 HD
ENDBRANCH  80  91
BRANCH  79  93
ATOM     93  O3' U   B  42      -3.207  24.354  28.844  0.00  0.00    +0.000 OA
BRANCH  93  94
ATOM     94  P   A   B  43      -3.547  22.814  29.075  0.00  0.00    +0.000 P 
ATOM     95  OP1 A   B  43      -3.658  22.158  27.754  0.00  0.00    +0.000 OA
BRANCH  94  96
ATOM     96  OP2 A   B  43      -4.670  22.732  30.035  0.00  0.00    +0.000 OA
ATOM     97  H   A   B  43      -5.479  23.064  29.615  0.00  0.00    +0.000 HD
ENDBRANCH  94  96
BRANCH  94  98
ATOM     98  O5' A   B  43      -2.245  22.260  29.809  0.00  0.00    +0.000 OA
BRANCH  98  99
ATOM     99  C5' A   B  43      -1.219  21.596  29.069  0.00  0.00    +0.000 C 
BRANCH  99 100
ATOM    100  C4' A   B  43      -0.104  21.123  29.966  0.00  0.00    +0.000 C 
ATOM    101  O4' A   B  43       0.875  22.201  30.147  0.00  0.00    +0.000 OA
ATOM    102  C3' A   B  43      -0.515  20.700  31.376  0.00  0.00    +0.000 C 
ATOM    103  C2' A   B  43      -0.191  21.938  32.212  0.00  0.00    +0.000 C 
ATOM    104  C1' A   B  43       1.082  22.405  31.515  0.00  0.00    +0.000 C 
BRANCH 104 105
ATOM    105  N9  A   B  43       1.414  23.818  31.746  0.00  0.00    +0.000 N 
ATOM    106  C8  A   B  43       2.246  24.303  32.722  0.00  0.00    +0.000 A 
ATOM    107  N7  A   B  43       2.380  25.608  32.708  0.00  0.00    +0.000 NA
ATOM    108  C5  A   B  43       1.590  26.005  31.646  0.00  0.00    +0.000 A 
ATOM    109  C6  A   B  43       1.312  27.261  31.110  0.00  0.00    +0.000 A 
ATOM    110  N6  A   B  43       1.819  28.410  31.591  0.00  0.00    +0.000 N 
ATOM    111  N1  A   B  43       0.488  27.318  30.046  0.00  0.00    +0.000 NA
ATOM    112  C2  A   B  43      -0.014  26.180  29.564  0.00  0.00    +0.000 A 
ATOM    113  N3  A   B  43       0.171  24.930  29.987  0.00  0.00    +0.000 NA
ATOM    114  C4  A   B  43       0.990  24.908  31.043  0.00  0.00    +0.000 A 
ATOM    115  H   A   B  43       1.584  29.267  31.167  0.00  0.00    +0.000 HD
ATOM    116  H   A   B  43       2.425  28.394  32.367  0.00  0.00    +0.000 HD
ENDBRANCH 104 105
BRANCH 103 117
ATOM    117  O2' A   B  43       0.017  21.673  33.580  0.00  0.00    +0.000 OA
ATOM    118  H   A   B  43       0.731  21.024  33.679  0.00  0.00    +0.000 HD
ENDBRANCH 103 117
BRANCH 102 119
ATOM    119  O3' A   B  43       0.309  19.607  31.801  0.00  0.00    +0.000 OA
BRANCH 119 120
ATOM    120  P   C   B  44      -0.247  18.319  32.472  0.00  0.00    +0.000 P 
ATOM    121  OP1 C   B  44      -1.719  18.436  32.593  0.00  0.00    +0.000 OA
BRANCH 120 122
ATOM    122  OP2 C   B  44       0.575  18.089  33.694  0.00  0.00    +0.000 OA
ATOM    123  H   C   B  44       1.512  18.036  33.448  0.00  0.00    +0.000 HD
ENDBRANCH 120 122
BRANCH 120 124
ATOM    124  O5' C   B  44       0.102  17.184  31.421  0.00  0.00    +0.000 OA
BRANCH 124 125
ATOM    125  C5' C   B  44      -0.851  16.735  30.490  0.00  0.00    +0.000 C 
BRANCH 125 126
ATOM    126  C4' C   B  44      -0.302  16.735  29.083  0.00  0.00    +0.000 C 
ATOM    127  O4' C   B  44       0.145  18.070  28.726  0.00  0.00    +0.000 OA
ATOM    128  C3' C   B  44       0.924  15.863  28.848  0.00  0.00    +0.000 C 
ATOM    129  C2' C   B  44       1.550  16.497  27.613  0.00  0.00    +0.000 C 
ATOM    130  C1' C   B  44       1.253  17.991  27.851  0.00  0.00    +0.000 C 
BRANCH 130 131
ATOM    131  N1  C   B  44       2.403  18.707  28.454  0.00  0.00    +0.000 N 
ATOM    132  C2  C   B  44       3.393  19.206  27.602  0.00  0.00    +0.000 A 
ATOM    133  O2  C   B  44       3.286  19.037  26.379  0.00  0.00    +0.000 OA
ATOM    134  N3  C   B  44       4.449  19.872  28.141  0.00  0.00    +0.000 NA
ATOM    135  C4  C   B  44       4.536  20.039  29.463  0.00  0.00    +0.000 A 
ATOM    136  N4  C   B  44       5.592  20.703  29.943  0.00  0.00    +0.000 N 
ATOM    137  C5  C   B  44       3.539  19.537  30.345  0.00  0.00    +0.000 A 
ATOM    138  C6  C   B  44       2.500  18.879  29.807  0.00  0.00    +0.000 A 
ATOM    139  H   C   B  44       6.278  21.048  29.327  0.00  0.00    +0.000 HD
ATOM    140  H   C   B  44       5.684  20.847  30.913  0.00  0.00    +0.000 HD
ENDBRANCH 130 131
BRANCH 129 141
ATOM    141  O2' C   B  44       0.880  16.086  26.429  0.00  0.00    +0.000 OA
ATOM    142  H   C   B  44      -0.064  16.298  26.502  0.00  0.00    +0.000 HD
ENDBRANCH 129 141
BRANCH 128 143
ATOM    143  O3' C   B  44       0.596  14.496  28.660  0.00  0.00    +0.000 OA
BRANCH 143 144
ATOM    144  P   U   B  45       1.483  13.366  29.324  0.00  0.00    +0.000 P 
ATOM    145  OP2 U   B  45       2.701  13.203  28.496  0.00  0.00    +0.000 OA
BRANCH 144 146
ATOM    146  OP1 U   B  45       1.615  13.653  30.773  0.00  0.00    +0.000 OA
ATOM    147  H   U   B  45       2.168  14.440  30.898  0.00  0.00    +0.000 HD
ENDBRANCH 144 146
BRANCH 144 148
ATOM    148  O5' U   B  45       0.573  12.074  29.143  0.00  0.00    +0.000 OA
BRANCH 148 149
ATOM    149  C5' U   B  45      -0.708  11.996  29.759  0.00  0.00    +0.000 C 
BRANCH 149 150
ATOM    150  C4' U   B  45      -1.722  11.350  28.841  0.00  0.00    +0.000 C 
ATOM    151  O4' U   B  45      -2.106  12.279  27.791  0.00  0.00    +0.000 OA
ATOM    152  C3' U   B  45      -1.241  10.120  28.090  0.00  0.00    +0.000 C 
ATOM    153  C2' U   B  45      -2.166  10.075  26.880  0.00  0.00    +0.000 C 
ATOM    154  C1' U   B  45      -2.356  11.577  26.585  0.00  0.00    +0.000 C 
BRANCH 154 155
ATOM    155  N1  U   B  45      -1.425  12.075  25.547  0.00  0.00    +0.000 N 
ATOM    156  C2  U   B  45      -1.688  11.741  24.231  0.00  0.00    +0.000 A 
ATOM    157  O2  U   B  45      -2.633  11.054  23.893  0.00  0.00    +0.000 OA
ATOM    158  N3  U   B  45      -0.796  12.247  23.316  0.00  0.00    +0.000 N 
ATOM    159  C4  U   B  45       0.305  13.037  23.580  0.00  0.00    +0.000 A 
ATOM    160  O4  U   B  45       1.014  13.416  22.643  0.00  0.00    +0.000 OA
ATOM    161  C5  U   B  45       0.508  13.342  24.965  0.00  0.00    +0.000 A 
ATOM    162  C6  U   B  45      -0.348  12.862  25.879  0.00  0.00    +0.000 A 
ATOM    163  H   U   B  45      -0.960  12.022  22.372  0.00  0.00    +0.000 HD
ENDBRANCH 154 155
BRANCH 153 164
ATOM    164  O2' U   B  45      -3.429   9.513  27.216  0.00  0.00    +0.000 OA
ATOM    165  H   U   B  45      -3.822  10.014  27.948  0.00  0.00    +0.000 HD
ENDBRANCH 153 164
BRANCH 152 166
ATOM    166  O3' U   B  45      -1.287   8.942  28.879  0.00  0.00    +0.000 OA
BRANCH 166 167
ATOM    167  P   U   B  46      -0.098   7.885  28.816  0.00  0.00    +0.000 P 
ATOM    168  OP2 U   B  46       1.181   8.633  28.740  0.00  0.00    +0.000 OA
BRANCH 167 169
ATOM    169  OP1 U   B  46      -0.306   6.887  29.899  0.00  0.00    +0.000 OA
ATOM    170  H   U   B  46       0.410   6.233  29.877  0.00  0.00    +0.000 HD
ENDBRANCH 167 169
BRANCH 167 171
ATOM    171  O5' U   B  46      -0.347   7.152  27.426  0.00  0.00    +0.000 OA
BRANCH 171 172
ATOM    172  C5' U   B  46      -1.543   6.421  27.183  0.00  0.00    +0.000 C 
BRANCH 172 173
ATOM    173  C4' U   B  46      -1.735   6.139  25.713  0.00  0.00    +0.000 C 
ATOM    174  O4' U   B  46      -1.873   7.392  24.982  0.00  0.00    +0.000 OA
ATOM    175  C3' U   B  46      -0.584   5.433  25.018  0.00  0.00    +0.000 C 
ATOM    176  C2' U   B  46      -0.792   5.822  23.560  0.00  0.00    +0.000 C 
ATOM    177  C1' U   B  46      -1.285   7.270  23.703  0.00  0.00    +0.000 C 
BRANCH 177 178
ATOM    178  N1  U   B  46      -0.175   8.246  23.595  0.00  0.00    +0.000 N 
ATOM    179  C2  U   B  46       0.245   8.604  22.323  0.00  0.00    +0.000 A 
ATOM    180  O2  U   B  46      -0.257   8.147  21.311  0.00  0.00    +0.000 OA
ATOM    181  N3  U   B  46       1.274   9.515  22.279  0.00  0.00    +0.000 N 
ATOM    182  C4  U   B  46       1.915  10.094  23.356  0.00  0.00    +0.000 A 
ATOM    183  O4  U   B  46       2.829  10.901  23.157  0.00  0.00    +0.000 OA
ATOM    184  C5  U   B  46       1.427   9.675  24.638  0.00  0.00    +0.000 A 
ATOM    185  C6  U   B  46       0.424   8.789  24.709  0.00  0.00    +0.000 A 
ATOM    186  H   U   B  46       1.587   9.783  21.385  0.00  0.00    +0.000 HD
ENDBRANCH 177 178
BRANCH 176 187
ATOM    187  O2' U   B  46      -1.825   5.051  22.963  0.00  0.00    +0.000 OA
ATOM    188  H   U   B  46      -2.640   5.147  23.480  0.00  0.00    +0.000 HD
ENDBRANCH 176 187
BRANCH 175 189
ATOM    189  O3' U   B  46      -0.585   4.031  25.240  0.00  0.00    +0.000 OA
BRANCH 189 190
ATOM    190  P   U   B  47       0.787   3.226  25.222  0.00  0.00    +0.000 P 
ATOM    191  OP1 U   B  47       0.517   1.857  25.729  0.00  0.00    +0.000 OA
BRANCH 190 192
ATOM    192  OP2 U   B  47       1.832   4.064  25.871  0.00  0.00    +0.000 OA
ATOM    193  H   U   B  47       1.882   4.923  25.423  0.00  0.00    +0.000 HD
ENDBRANCH 190 192
BRANCH 190 194
ATOM    194  O5' U   B  47       1.120   3.121  23.665  0.00  0.00    +0.000 OA
BRANCH 194 195
ATOM    195  C5' U   B  47       0.251   2.435  22.778  0.00  0.00    +0.000 C 
BRANCH 195 196
ATOM    196  C4' U   B  47       0.562   2.746  21.329  0.00  0.00    +0.000 C 
ATOM    197  O4' U   B  47       0.428   4.176  21.085  0.00  0.00    +0.000 OA
ATOM    198  C3' U   B  47       1.974   2.432  20.869  0.00  0.00    +0.000 C 
ATOM    199  C2' U   B  47       2.130   3.337  19.652  0.00  0.00    +0.000 C 
ATOM    200  C1' U   B  47       1.364   4.588  20.109  0.00  0.00    +0.000 C 
BRANCH 200 201
ATOM    201  N1  U   B  47       2.264   5.600  20.706  0.00  0.00    +0.000 N 
ATOM    202  C2  U   B  47       2.943   6.445  19.836  0.00  0.00    +0.000 A 
ATOM    203  O2  U   B  47       2.828   6.377  18.626  0.00  0.00    +0.000 OA
ATOM    204  N3  U   B  47       3.762   7.371  20.440  0.00  0.00    +0.000 N 
ATOM    205  C4  U   B  47       3.970   7.534  21.795  0.00  0.00    +0.000 A 
ATOM    206  O4  U   B  47       4.742   8.415  22.190  0.00  0.00    +0.000 OA
ATOM    207  C5  U   B  47       3.236   6.627  22.628  0.00  0.00    +0.000 A 
ATOM    208  C6  U   B  47       2.430   5.715  22.067  0.00  0.00    +0.000 A 
ATOM    209  H   U   B  47       4.251   7.982  19.843  0.00  0.00    +0.000 HD
ENDBRANCH 200 201
BRANCH 199 210
ATOM    210  O2' U   B  47       1.475   2.797  18.518  0.00  0.00    +0.000 OA
ATOM    211  H   U   B  47       0.541   2.640  18.728  0.00  0.00    +0.000 HD
ENDBRANCH 199 210
BRANCH 198 212
ATOM    212  O3' U   B  47       2.166   1.056  20.572  0.00  0.00    +0.000 OA
BRANCH 212 213
ATOM    213  P   A   B  48       3.621   0.407  20.703  0.00  0.00    +0.000 P 
ATOM    214  OP1 A   B  48       3.483  -1.061  20.554  0.00  0.00    +0.000 OA
BRANCH 213 215
ATOM    215  OP2 A   B  48       4.279   0.968  21.910  0.00  0.00    +0.000 OA
ATOM    216  H   A   B  48       5.165   0.583  22.004  0.00  0.00    +0.000 HD
ENDBRANCH 213 215
BRANCH 213 217
ATOM    217  O5' A   B  48       4.374   0.965  19.414  0.00  0.00    +0.000 OA
BRANCH 217 218
ATOM    218  C5' A   B  48       3.932   0.631  18.111  0.00  0.00    +0.000 C 
BRANCH 218 219
ATOM    219  C4' A   B  48       4.564   1.519  17.062  0.00  0.00    +0.000 C 
ATOM    220  O4' A   B  48       4.232   2.909  17.322  0.00  0.00    +0.000 OA
ATOM    221  C3' A   B  48       6.082   1.512  17.009  0.00  0.00    +0.000 C 
ATOM    222  C2' A   B  48       6.391   2.845  16.339  0.00  0.00    +0.000 C 
ATOM    223  C1' A   B  48       5.305   3.746  16.938  0.00  0.00    +0.000 C 
BRANCH 223 224
ATOM    224  N9  A   B  48       5.782   4.476  18.129  0.00  0.00    +0.000 N 
ATOM    225  C8  A   B  48       5.565   4.180  19.455  0.00  0.00    +0.000 A 
ATOM    226  N7  A   B  48       6.119   5.034  20.285  0.00  0.00    +0.000 NA
ATOM    227  C5  A   B  48       6.746   5.953  19.454  0.00  0.00    +0.000 A 
ATOM    228  C6  A   B  48       7.509   7.106  19.716  0.00  0.00    +0.000 A 
ATOM    229  N6  A   B  48       7.785   7.551  20.950  0.00  0.00    +0.000 N 
ATOM    230  N1  A   B  48       7.987   7.798  18.658  0.00  0.00    +0.000 NA
ATOM    231  C2  A   B  48       7.715   7.356  17.421  0.00  0.00    +0.000 A 
ATOM    232  N3  A   B  48       7.008   6.286  17.046  0.00  0.00    +0.000 NA
ATOM    233  C4  A   B  48       6.548   5.622  18.124  0.00  0.00    +0.000 A 
ATOM    234  H   A   B  48       8.325   8.365  21.070  0.00  0.00    +0.000 HD
ATOM    235  H   A   B  48       7.448   7.063  21.736  0.00  0.00    +0.000 HD
ENDBRANCH 223 224
BRANCH 222 236
ATOM    236  O2' A   B  48       6.195   2.774  14.936  0.00  0.00    +0.000 OA
ATOM    237  H   A   B  48       5.289   2.482  14.750  0.00  0.00    +0.000 HD
ENDBRANCH 222 236
BRANCH 221 238
ATOM    238  O3' A   B  48       6.607   0.397  16.302  0.00  0.00    +0.000 OA
BRANCH 238 239
ATOM    239  P   U   B  49       8.057  -0.166  16.660  0.00  0.00    +0.000 P 
ATOM    240  OP1 U   B  49       8.226  -1.449  15.936  0.00  0.00    +0.000 OA
BRANCH 239 241
ATOM    241  OP2 U   B  49       8.231  -0.123  18.135  0.00  0.00    +0.000 OA
ATOM    242  H   U   B  49       9.109  -0.463  18.367  0.00  0.00    +0.000 HD
ENDBRANCH 239 241
BRANCH 239 243
ATOM    243  O5' U   B  49       9.039   0.906  16.008  0.00  0.00    +0.000 OA
BRANCH 243 244
ATOM    244  C5' U   B  49       9.046   1.142  14.610  0.00  0.00    +0.000 C 
BRANCH 244 245
ATOM    245  C4' U   B  49       9.819   2.392  14.257  0.00  0.00    +0.000 C 
ATOM    246  O4' U   B  49       9.208   3.546  14.894  0.00  0.00    +0.000 OA
ATOM    247  C3' U   B  49      11.262   2.431  14.727  0.00  0.00    +0.000 C 
ATOM    248  C2' U   B  49      11.551   3.925  14.766  0.00  0.00    +0.000 C 
ATOM    249  C1' U   B  49      10.207   4.480  15.255  0.00  0.00    +0.000 C 
BRANCH 249 250
ATOM    250  N1  U   B  49      10.182   4.653  16.727  0.00  0.00    +0.000 N 
ATOM    251  C2  U   B  49      10.751   5.807  17.248  0.00  0.00    +0.000 A 
ATOM    252  O2  U   B  49      11.266   6.664  16.552  0.00  0.00    +0.000 OA
ATOM    253  N3  U   B  49      10.693   5.918  18.618  0.00  0.00    +0.000 N 
ATOM    254  C4  U   B  49      10.140   5.014  19.501  0.00  0.00    +0.000 A 
ATOM    255  O4  U   B  49      10.164   5.253  20.713  0.00  0.00    +0.000 OA
ATOM    256  C5  U   B  49       9.576   3.853  18.890  0.00  0.00    +0.000 A 
ATOM    257  C6  U   B  49       9.617   3.716  17.556  0.00  0.00    +0.000 A 
ATOM    258  H   U   B  49      11.089   6.730  19.010  0.00  0.00    +0.000 HD
ENDBRANCH 249 250
BRANCH 248 259
ATOM    259  O2' U   B  49      11.804   4.440  13.468  0.00  0.00    +0.000 OA
ATOM    260  H   U   B  49      11.053   4.239  12.888  0.00  0.00    +0.000 HD
ENDBRANCH 248 259
BRANCH 247 261
ATOM    261  O3' U   B  49      12.140   1.713  13.872  0.00  0.00    +0.000 OA
BRANCH 261 262
ATOM    262  P   U   B  50      13.445   1.023  14.477  0.00  0.00    +0.000 P 
ATOM    263  OP1 U   B  50      14.056   0.202  13.403  0.00  0.00    +0.000 OA
BRANCH 262 264
ATOM    264  OP2 U   B  50      13.086   0.396  15.774  0.00  0.00    +0.000 OA
ATOM    265  H   U   B  50      12.498  -0.359  15.616  0.00  0.00    +0.000 HD
ENDBRANCH 262 264
BRANCH 262 266
ATOM    266  O5' U   B  50      14.408   2.257  14.768  0.00  0.00    +0.000 OA
BRANCH 266 267
ATOM    267  C5' U   B  50      14.869   3.093  13.717  0.00  0.00    +0.000 C 
BRANCH 267 268
ATOM    268  C4' U   B  50      15.536   4.340  14.249  0.00  0.00    +0.000 C 
ATOM    269  O4' U   B  50      14.577   5.125  15.010  0.00  0.00    +0.000 OA
ATOM    270  C3' U   B  50      16.683   4.116  15.214  0.00  0.00    +0.000 C 
ATOM    271  C2' U   B  50      16.731   5.432  15.975  0.00  0.00    +0.000 C 
ATOM    272  C1' U   B  50      15.238   5.776  16.077  0.00  0.00    +0.000 C 
BRANCH 272 273
ATOM    273  N1  U   B  50      14.645   5.311  17.352  0.00  0.00    +0.000 N 
ATOM    274  C2  U   B  50      14.823   6.110  18.469  0.00  0.00    +0.000 A 
ATOM    275  O2  U   B  50      15.439   7.159  18.446  0.00  0.00    +0.000 OA
ATOM    276  N3  U   B  50      14.245   5.632  19.623  0.00  0.00    +0.000 N 
ATOM    277  C4  U   B  50      13.531   4.463  19.771  0.00  0.00    +0.000 A 
ATOM    278  O4  U   B  50      13.074   4.165  20.878  0.00  0.00    +0.000 OA
ATOM    279  C5  U   B  50      13.395   3.695  18.575  0.00  0.00    +0.000 A 
ATOM    280  C6  U   B  50      13.944   4.135  17.434  0.00  0.00    +0.000 A 
ATOM    281  H   U   B  50      14.353   6.185  20.430  0.00  0.00    +0.000 HD
ENDBRANCH 272 273
BRANCH 271 282
ATOM    282  O2' U   B  50      17.374   6.444  15.218  0.00  0.00    +0.000 OA
ATOM    283  H   U   B  50      16.926   6.542  14.363  0.00  0.00    +0.000 HD
ENDBRANCH 271 282
BRANCH 270 284
ATOM    284  O3' U   B  50      17.902   3.801  14.558  0.00  0.00    +0.000 OA
BRANCH 284 285
ATOM    285  P   U   B  51      18.964   2.856  15.279  0.00  0.00    +0.000 P 
ATOM    286  OP1 U   B  51      20.027   2.548  14.294  0.00  0.00    +0.000 OA
BRANCH 285 287
ATOM    287  OP2 U   B  51      18.233   1.749  15.945  0.00  0.00    +0.000 OA
ATOM    288  H   U   B  51      17.847   1.166  15.273  0.00  0.00    +0.000 HD
ENDBRANCH 285 287
BRANCH 285 289
ATOM    289  O5' U   B  51      19.584   3.794  16.406  0.00  0.00    +0.000 OA
BRANCH 289 290
ATOM    290  C5' U   B  51      20.267   4.993  16.068  0.00  0.00    +0.000 C 
BRANCH 290 291
ATOM    291  C4' U   B  51      20.490   5.867  17.281  0.00  0.00    +0.000 C 
ATOM    292  O4' U   B  51      19.211   6.258  17.849  0.00  0.00    +0.000 OA
ATOM    293  C3' U   B  51      21.225   5.215  18.438  0.00  0.00    +0.000 C 
ATOM    294  C2' U   B  51      20.782   6.057  19.625  0.00  0.00    +0.000 C 
ATOM    295  C1' U   B  51      19.322   6.358  19.255  0.00  0.00    +0.000 C 
BRANCH 295 296
ATOM    296  N1  U   B  51      18.377   5.395  19.868  0.00  0.00    +0.000 N 
ATOM    297  C2  U   B  51      17.998   5.620  21.179  0.00  0.00    +0.000 A 
ATOM    298  O2  U   B  51      18.407   6.562  21.835  0.00  0.00    +0.000 OA
ATOM    299  N3  U   B  51      17.114   4.702  21.697  0.00  0.00    +0.000 N 
ATOM    300  C4  U   B  51      16.589   3.604  21.051  0.00  0.00    +0.000 A 
ATOM    301  O4  U   B  51      15.804   2.866  21.652  0.00  0.00    +0.000 OA
ATOM    302  C5  U   B  51      17.030   3.438  19.703  0.00  0.00    +0.000 A 
ATOM    303  C6  U   B  51      17.887   4.318  19.172  0.00  0.00    +0.000 A 
ATOM    304  H   U   B  51      16.826   4.845  22.628  0.00  0.00    +0.000 HD
ENDBRANCH 295 296
BRANCH 294 305
ATOM    305  O2' U   B  51      21.491   7.282  19.681  0.00  0.00    +0.000 OA
ATOM    306  H   U   B  51      21.380   7.758  18.843  0.00  0.00    +0.000 HD
ENDBRANCH 294 305
BRANCH 293 307
ATOM    307  O3' U   B  51      22.631   5.196  18.252  0.00  0.00    +0.000 OA
BRANCH 307 308
ATOM    308  P   U   B  52      23.494   4.002  18.858  0.00  0.00    +0.000 P 
ATOM    309  OP1 U   B  52      24.871   4.131  18.335  0.00  0.00    +0.000 OA
BRANCH 308 310
ATOM    310  OP2 U   B  52      22.744   2.735  18.658  0.00  0.00    +0.000 OA
ATOM    311  H   U   B  52      22.718   2.520  17.712  0.00  0.00    +0.000 HD
ENDBRANCH 308 310
BRANCH 308 312
ATOM    312  O5' U   B  52      23.518   4.326  20.417  0.00  0.00    +0.000 OA
BRANCH 312 313
ATOM    313  C5' U   B  52      24.086   5.534  20.905  0.00  0.00    +0.000 C 
BRANCH 313 314
ATOM    314  C4' U   B  52      23.796   5.732  22.374  0.00  0.00    +0.000 C 
ATOM    315  O4' U   B  52      22.370   5.936  22.573  0.00  0.00    +0.000 OA
ATOM    316  C3' U   B  52      24.125   4.557  23.275  0.00  0.00    +0.000 C 
ATOM    317  C2' U   B  52      23.228   4.801  24.477  0.00  0.00    +0.000 C 
ATOM    318  C1' U   B  52      21.970   5.369  23.804  0.00  0.00    +0.000 C 
BRANCH 318 319
ATOM    319  N1  U   B  52      20.959   4.321  23.526  0.00  0.00    +0.000 N 
ATOM    320  C2  U   B  52      20.096   3.981  24.552  0.00  0.00    +0.000 A 
ATOM    321  O2  U   B  52      20.136   4.506  25.653  0.00  0.00    +0.000 OA
ATOM    322  N3  U   B  52      19.175   3.008  24.243  0.00  0.00    +0.000 N 
ATOM    323  C4  U   B  52      19.039   2.350  23.039  0.00  0.00    +0.000 A 
ATOM    324  O4  U   B  52      18.164   1.494  22.912  0.00  0.00    +0.000 OA
ATOM    325  C5  U   B  52      19.970   2.754  22.031  0.00  0.00    +0.000 A 
ATOM    326  C6  U   B  52      20.875   3.701  22.304  0.00  0.00    +0.000 A 
ATOM    327  H   U   B  52      18.546   2.754  24.957  0.00  0.00    +0.000 HD
ENDBRANCH 318 319
BRANCH 317 328
ATOM    328  O2' U   B  52      23.768   5.795  25.330  0.00  0.00    +0.000 OA
ATOM    329  H   U   B  52      23.917   6.609  24.824  0.00  0.00    +0.000 HD
ENDBRANCH 317 328
BRANCH 316 330
ATOM    330  O3' U   B  52      25.505   4.487  23.599  0.00  0.00    +0.000 OA
BRANCH 330 331
ATOM    331  P   A   B  53      26.203   3.063  23.759  0.00  0.00    +0.000 P 
ATOM    332  OP2 A   B  53      25.658   2.148  22.725  0.00  0.00    +0.000 OA
BRANCH 331 333
ATOM    333  OP1 A   B  53      27.664   3.285  23.851  0.00  0.00    +0.000 OA
ATOM    334  H   A   B  53      28.000   3.585  22.992  0.00  0.00    +0.000 HD
ENDBRANCH 331 333
BRANCH 331 335
ATOM    335  O5' A   B  53      25.682   2.572  25.180  0.00  0.00    +0.000 OA
BRANCH 335 336
ATOM    336  C5' A   B  53      25.978   3.312  26.357  0.00  0.00    +0.000 C 
BRANCH 336 337
ATOM    337  C4' A   B  53      25.214   2.780  27.548  0.00  0.00    +0.000 C 
ATOM    338  O4' A   B  53      23.798   3.063  27.398  0.00  0.00    +0.000 OA
ATOM    339  C3' A   B  53      25.266   1.276  27.748  0.00  0.00    +0.000 C 
ATOM    340  C2' A   B  53      24.025   1.017  28.587  0.00  0.00    +0.000 C 
ATOM    341  C1' A   B  53      23.038   2.024  27.982  0.00  0.00    +0.000 C 
BRANCH 341 342
ATOM    342  N9  A   B  53      22.193   1.420  26.934  0.00  0.00    +0.000 N 
ATOM    343  C8  A   B  53      22.388   1.423  25.578  0.00  0.00    +0.000 A 
ATOM    344  N7  A   B  53      21.446   0.795  24.909  0.00  0.00    +0.000 NA
ATOM    345  C5  A   B  53      20.574   0.347  25.892  0.00  0.00    +0.000 A 
ATOM    346  C6  A   B  53      19.376  -0.385  25.841  0.00  0.00    +0.000 A 
ATOM    347  N1  A   B  53      18.757  -0.664  27.006  0.00  0.00    +0.000 NA
ATOM    348  C2  A   B  53      19.308  -0.234  28.146  0.00  0.00    +0.000 A 
ATOM    349  N3  A   B  53      20.433   0.466  28.326  0.00  0.00    +0.000 NA
ATOM    350  C4  A   B  53      21.024   0.725  27.145  0.00  0.00    +0.000 A 
BRANCH 346 351
ATOM    351  N6  A   B  53      18.822  -0.820  24.702  0.00  0.00    +0.000 N 
ATOM    352  H   A   B  53      19.256  -0.628  23.839  0.00  0.00    +0.000 HD
ATOM    353  H   A   B  53      17.981  -1.331  24.728  0.00  0.00    +0.000 HD
ENDBRANCH 346 351
ENDBRANCH 341 342
BRANCH 340 354
ATOM    354  O2' A   B  53      24.242   1.355  29.948  0.00  0.00    +0.000 OA
ATOM    355  H   A   B  53      24.529   2.279  30.010  0.00  0.00    +0.000 HD
ENDBRANCH 340 354
BRANCH 339 356
ATOM    356  O3' A   B  53      26.470   0.841  28.362  0.00  0.00    +0.000 OA
BRANCH 356 357
ATOM    357  P   A   B  54      27.115  -0.556  27.943  0.00  0.00    +0.000 P 
ATOM    358  OP2 A   B  54      26.866  -0.781  26.496  0.00  0.00    +0.000 OA
BRANCH 357 359
ATOM    359  OP1 A   B  54      28.503  -0.584  28.464  0.00  0.00    +0.000 OA
ATOM    360  H   A   B  54      29.045   0.053  27.974  0.00  0.00    +0.000 HD
ENDBRANCH 357 359
BRANCH 357 361
ATOM    361  O5' A   B  54      26.252  -1.610  28.766  0.00  0.00    +0.000 OA
BRANCH 361 362
ATOM    362  C5' A   B  54      26.221  -1.566  30.186  0.00  0.00    +0.000 C 
BRANCH 362 363
ATOM    363  C4' A   B  54      25.083  -2.394  30.738  0.00  0.00    +0.000 C 
ATOM    364  O4' A   B  54      23.812  -1.822  30.329  0.00  0.00    +0.000 OA
ATOM    365  C3' A   B  54      25.011  -3.828  30.247  0.00  0.00    +0.000 C 
ATOM    366  C2' A   B  54      23.553  -4.177  30.494  0.00  0.00    +0.000 C 
ATOM    367  C1' A   B  54      22.866  -2.855  30.134  0.00  0.00    +0.000 C 
BRANCH 367 368
ATOM    368  N9  A   B  54      22.429  -2.830  28.726  0.00  0.00    +0.000 N 
ATOM    369  C8  A   B  54      23.089  -2.311  27.642  0.00  0.00    +0.000 A 
ATOM    370  N7  A   B  54      22.430  -2.448  26.513  0.00  0.00    +0.000 NA
ATOM    371  C5  A   B  54      21.261  -3.102  26.879  0.00  0.00    +0.000 A 
ATOM    372  C6  A   B  54      20.144  -3.539  26.148  0.00  0.00    +0.000 A 
ATOM    373  N1  A   B  54      19.150  -4.155  26.818  0.00  0.00    +0.000 NA
ATOM    374  C2  A   B  54      19.273  -4.322  28.137  0.00  0.00    +0.000 A 
ATOM    375  N3  A   B  54      20.275  -3.954  28.941  0.00  0.00    +0.000 NA
ATOM    376  C4  A   B  54      21.248  -3.345  28.240  0.00  0.00    +0.000 A 
BRANCH 372 377
ATOM    377  N6  A   B  54      20.019  -3.376  24.822  0.00  0.00    +0.000 N 
ATOM    378  H   A   B  54      19.213  -3.702  24.360  0.00  0.00    +0.000 HD
ATOM    379  H   A   B  54      20.733  -2.930  24.311  0.00  0.00    +0.000 HD
ENDBRANCH 372 377
ENDBRANCH 367 368
BRANCH 366 380
ATOM    380  O2' A   B  54      23.310  -4.455  31.864  0.00  0.00    +0.000 OA
ATOM    381  H   A   B  54      23.592  -3.699  32.402  0.00  0.00    +0.000 HD
ENDBRANCH 366 380
BRANCH 365 382
ATOM    382  O3' A   B  54      25.920  -4.690  30.912  0.00  0.00    +0.000 OA
BRANCH 382 383
ATOM    383  P   A   B  55      26.519  -5.951  30.139  0.00  0.00    +0.000 P 
ATOM    384  OP2 A   B  55      26.789  -5.559  28.731  0.00  0.00    +0.000 OA
BRANCH 383 385
ATOM    385  OP1 A   B  55      27.614  -6.507  30.970  0.00  0.00    +0.000 OA
ATOM    386  H   A   B  55      27.999  -7.278  30.524  0.00  0.00    +0.000 HD
ENDBRANCH 383 385
BRANCH 383 387
ATOM    387  O5' A   B  55      25.311  -6.991  30.142  0.00  0.00    +0.000 OA
BRANCH 387 388
ATOM    388  C5' A   B  55      24.776  -7.470  31.366  0.00  0.00    +0.000 C 
BRANCH 388 389
ATOM    389  C4' A   B  55      23.486  -8.227  31.151  0.00  0.00    +0.000 C 
ATOM    390  O4' A   B  55      22.467  -7.335  30.627  0.00  0.00    +0.000 OA
ATOM    391  C3' A   B  55      23.539  -9.352  30.132  0.00  0.00    +0.000 C 
ATOM    392  C2' A   B  55      22.077  -9.508  29.749  0.00  0.00    +0.000 C 
ATOM    393  C1' A   B  55      21.611  -8.049  29.755  0.00  0.00    +0.000 C 
BRANCH 393 394
ATOM    394  N9  A   B  55      21.688  -7.445  28.415  0.00  0.00    +0.000 N 
ATOM    395  C8  A   B  55      22.668  -6.635  27.901  0.00  0.00    +0.000 A 
ATOM    396  N7  A   B  55      22.441  -6.257  26.661  0.00  0.00    +0.000 NA
ATOM    397  C5  A   B  55      21.231  -6.860  26.340  0.00  0.00    +0.000 A 
ATOM    398  C6  A   B  55      20.443  -6.853  25.178  0.00  0.00    +0.000 A 
ATOM    399  N1  A   B  55      19.295  -7.556  25.189  0.00  0.00    +0.000 NA
ATOM    400  C2  A   B  55      18.958  -8.223  26.299  0.00  0.00    +0.000 A 
ATOM    401  N3  A   B  55      19.616  -8.306  27.459  0.00  0.00    +0.000 NA
ATOM    402  C4  A   B  55      20.757  -7.594  27.410  0.00  0.00    +0.000 A 
BRANCH 398 403
ATOM    403  N6  A   B  55      20.779  -6.186  24.062  0.00  0.00    +0.000 N 
ATOM    404  H   A   B  55      20.189  -6.215  23.275  0.00  0.00    +0.000 HD
ATOM    405  H   A   B  55      21.616  -5.668  24.031  0.00  0.00    +0.000 HD
ENDBRANCH 398 403
ENDBRANCH 393 394
BRANCH 392 406
ATOM    406  O2' A   B  55      21.355 -10.220  30.741  0.00  0.00    +0.000 OA
ATOM    407  H   A   B  55      21.455  -9.774  31.596  0.00  0.00    +0.000 HD
ENDBRANCH 392 406
BRANCH 391 408
ATOM    408  O3' A   B  55      24.119 -10.539  30.647  0.00  0.00    +0.000 OA
BRANCH 408 409
ATOM    409  P   A   B  56      24.889 -11.531  29.664  0.00  0.00    +0.000 P 
ATOM    410  OP2 A   B  56      25.665 -10.722  28.685  0.00  0.00    +0.000 OA
BRANCH 409 411
ATOM    411  OP1 A   B  56      25.585 -12.538  30.501  0.00  0.00    +0.000 OA
ATOM    412  H   A   B  56      26.064 -13.158  29.929  0.00  0.00    +0.000 HD
ENDBRANCH 409 411
BRANCH 409 413
ATOM    413  O5' A   B  56      23.709 -12.263  28.878  0.00  0.00    +0.000 OA
BRANCH 413 414
ATOM    414  C5' A   B  56      22.739 -13.021  29.583  0.00  0.00    +0.000 C 
BRANCH 414 415
ATOM    415  C4' A   B  56      21.563 -13.372  28.704  0.00  0.00    +0.000 C 
ATOM    416  O4' A   B  56      20.898 -12.161  28.261  0.00  0.00    +0.000 OA
ATOM    417  C3' A   B  56      21.891 -14.097  27.411  0.00  0.00    +0.000 C 
ATOM    418  C2' A   B  56      20.674 -13.798  26.553  0.00  0.00    +0.000 C 
ATOM    419  C1' A   B  56      20.371 -12.354  26.962  0.00  0.00    +0.000 C 
BRANCH 419 420
ATOM    420  N9  A   B  56      20.995 -11.380  26.050  0.00  0.00    +0.000 N 
ATOM    421  C8  A   B  56      22.149 -10.664  26.232  0.00  0.00    +0.000 A 
ATOM    422  N7  A   B  56      22.438  -9.870  25.225  0.00  0.00    +0.000 NA
ATOM    423  C5  A   B  56      21.405 -10.080  24.322  0.00  0.00    +0.000 A 
ATOM    424  C6  A   B  56      21.123  -9.542  23.057  0.00  0.00    +0.000 A 
ATOM    425  N1  A   B  56      20.013  -9.964  22.424  0.00  0.00    +0.000 NA
ATOM    426  C2  A   B  56      19.234 -10.872  23.025  0.00  0.00    +0.000 A 
ATOM    427  N3  A   B  56      19.392 -11.453  24.214  0.00  0.00    +0.000 NA
ATOM    428  C4  A   B  56      20.511 -11.008  24.816  0.00  0.00    +0.000 A 
BRANCH 424 429
ATOM    429  N6  A   B  56      21.903  -8.634  22.450  0.00  0.00    +0.000 N 
ATOM    430  H   A   B  56      21.657  -8.290  21.561  0.00  0.00    +0.000 HD
ATOM    431  H   A   B  56      22.721  -8.312  22.894  0.00  0.00    +0.000 HD
ENDBRANCH 424 429
ENDBRANCH 419 420
BRANCH 418 432
ATOM    432  O2' A   B  56      19.576 -14.616  26.914  0.00  0.00    +0.000 OA
ATOM    433  H   A   B  56      19.386 -14.504  27.859  0.00  0.00    +0.000 HD
ENDBRANCH 418 432
BRANCH 417 434
ATOM    434  O3' A   B  56      22.121 -15.484  27.598  0.00  0.00    +0.000 OA
BRANCH 434 435
ATOM    435  P   A   B  57      23.031 -16.275  26.560  0.00  0.00    +0.000 P 
ATOM    436  OP2 A   B  57      24.151 -15.391  26.136  0.00  0.00    +0.000 OA
BRANCH 435 437
ATOM    437  OP1 A   B  57      23.326 -17.603  27.151  0.00  0.00    +0.000 OA
ATOM    438  H   A   B  57      23.881 -18.112  26.540  0.00  0.00    +0.000 HD
ENDBRANCH 435 437
BRANCH 435 439
ATOM    439  O5' A   B  57      22.066 -16.492  25.311  0.00  0.00    +0.000 OA
BRANCH 439 440
ATOM    440  C5' A   B  57      20.853 -17.209  25.454  0.00  0.00    +0.000 C 
BRANCH 440 441
ATOM    441  C4' A   B  57      20.040 -17.175  24.183  0.00  0.00    +0.000 C 
ATOM    442  O4' A   B  57      19.574 -15.826  23.928  0.00  0.00    +0.000 OA
ATOM    443  C3' A   B  57      20.784 -17.549  22.913  0.00  0.00    +0.000 C 
ATOM    444  C2' A   B  57      19.943 -16.884  21.835  0.00  0.00    +0.000 C 
ATOM    445  C1' A   B  57      19.539 -15.588  22.536  0.00  0.00    +0.000 C 
BRANCH 445 446
ATOM    446  N9  A   B  57      20.462 -14.481  22.226  0.00  0.00    +0.000 N 
ATOM    447  C8  A   B  57      21.520 -14.035  22.973  0.00  0.00    +0.000 A 
ATOM    448  N7  A   B  57      22.158 -13.023  22.431  0.00  0.00    +0.000 NA
ATOM    449  C5  A   B  57      21.472 -12.789  21.248  0.00  0.00    +0.000 A 
ATOM    450  C6  A   B  57      21.646 -11.850  20.220  0.00  0.00    +0.000 A 
ATOM    451  N1  A   B  57      20.790 -11.888  19.183  0.00  0.00    +0.000 NA
ATOM    452  C2  A   B  57      19.819 -12.809  19.179  0.00  0.00    +0.000 A 
ATOM    453  N3  A   B  57      19.552 -13.747  20.089  0.00  0.00    +0.000 NA
ATOM    454  C4  A   B  57      20.427 -13.680  21.110  0.00  0.00    +0.000 A 
BRANCH 450 455
ATOM    455  N6  A   B  57      22.619 -10.928  20.219  0.00  0.00    +0.000 N 
ATOM    456  H   A   B  57      22.695 -10.293  19.471  0.00  0.00    +0.000 HD
ATOM    457  H   A   B  57      23.258 -10.886  20.967  0.00  0.00    +0.000 HD
ENDBRANCH 450 455
ENDBRANCH 445 446
BRANCH 444 458
ATOM    458  O2' A   B  57      18.778 -17.636  21.552  0.00  0.00    +0.000 OA
ATOM    459  H   A   B  57      18.273 -17.770  22.369  0.00  0.00    +0.000 HD
ENDBRANCH 444 458
BRANCH 443 460
ATOM    460  O3' A   B  57      20.917 -18.951  22.749  0.00  0.00    +0.000 OA
BRANCH 460 461
ATOM    461  P   C   B  58      22.178 -19.533  21.978  0.00  0.00    +0.000 P 
ATOM    462  OP2 C   B  58      23.314 -18.588  22.138  0.00  0.00    +0.000 OA
BRANCH 461 463
ATOM    463  OP1 C   B  58      22.340 -20.956  22.372  0.00  0.00    +0.000 OA
ATOM    464  H   C   B  58      23.106 -21.334  21.912  0.00  0.00    +0.000 HD
ENDBRANCH 461 463
BRANCH 461 465
ATOM    465  O5' C   B  58      21.702 -19.488  20.461  0.00  0.00    +0.000 OA
BRANCH 465 466
ATOM    466  C5' C   B  58      20.524 -20.161  20.057  0.00  0.00    +0.000 C 
BRANCH 466 467
ATOM    467  C4' C   B  58      20.059 -19.687  18.701  0.00  0.00    +0.000 C 
ATOM    468  O4' C   B  58      19.668 -18.294  18.774  0.00  0.00    +0.000 OA
ATOM    469  C3' C   B  58      21.098 -19.713  17.597  0.00  0.00    +0.000 C 
ATOM    470  C2' C   B  58      20.549 -18.697  16.606  0.00  0.00    +0.000 C 
ATOM    471  C1' C   B  58      19.958 -17.647  17.551  0.00  0.00    +0.000 C 
BRANCH 471 472
ATOM    472  N1  C   B  58      20.899 -16.538  17.815  0.00  0.00    +0.000 N 
ATOM    473  C2  C   B  58      20.899 -15.446  16.942  0.00  0.00    +0.000 A 
ATOM    474  O2  C   B  58      20.110 -15.436  15.981  0.00  0.00    +0.000 OA
ATOM    475  N3  C   B  58      21.757 -14.420  17.168  0.00  0.00    +0.000 NA
ATOM    476  C4  C   B  58      22.590 -14.460  18.211  0.00  0.00    +0.000 A 
ATOM    477  N4  C   B  58      23.418 -13.428  18.392  0.00  0.00    +0.000 N 
ATOM    478  C5  C   B  58      22.609 -15.563  19.111  0.00  0.00    +0.000 A 
ATOM    479  C6  C   B  58      21.757 -16.568  18.878  0.00  0.00    +0.000 A 
ATOM    480  H   C   B  58      23.401 -12.668  17.767  0.00  0.00    +0.000 HD
ATOM    481  H   C   B  58      24.045 -13.428  19.151  0.00  0.00    +0.000 HD
ENDBRANCH 471 472
BRANCH 470 482
ATOM    482  O2' C   B  58      19.505 -19.249  15.828  0.00  0.00    +0.000 OA
ATOM    483  H   C   B  58      18.811 -19.589  16.414  0.00  0.00    +0.000 HD
ENDBRANCH 470 482
BRANCH 469 484
ATOM    484  O3' C   B  58      21.268 -21.007  17.044  0.00  0.00    +0.000 OA
BRANCH 484 485
ATOM    485  P   A   B  59      22.515 -21.295  16.096  0.00  0.00    +0.000 P 
ATOM    486  OP1 A   B  59      22.648 -22.762  15.927  0.00  0.00    +0.000 OA
BRANCH 485 487
ATOM    487  OP2 A   B  59      23.674 -20.508  16.596  0.00  0.00    +0.000 OA
ATOM    488  H   A   B  59      24.444 -20.671  16.030  0.00  0.00    +0.000 HD
ENDBRANCH 485 487
BRANCH 485 489
ATOM    489  O5' A   B  59      22.050 -20.666  14.713  0.00  0.00    +0.000 OA
BRANCH 489 490
ATOM    490  C5' A   B  59      23.001 -20.205  13.774  0.00  0.00    +0.000 C 
BRANCH 490 491
ATOM    491  C4' A   B  59      22.461 -19.035  12.990  0.00  0.00    +0.000 C 
ATOM    492  O4' A   B  59      22.011 -18.002  13.902  0.00  0.00    +0.000 OA
ATOM    493  C3' A   B  59      23.463 -18.321  12.096  0.00  0.00    +0.000 C 
ATOM    494  C2' A   B  59      22.870 -16.928  11.964  0.00  0.00    +0.000 C 
ATOM    495  C1' A   B  59      22.278 -16.726  13.365  0.00  0.00    +0.000 C 
BRANCH 495 496
ATOM    496  N9  A   B  59      23.205 -16.026  14.269  0.00  0.00    +0.000 N 
ATOM    497  C8  A   B  59      23.807 -16.528  15.395  0.00  0.00    +0.000 A 
ATOM    498  N7  A   B  59      24.585 -15.666  16.009  0.00  0.00    +0.000 NA
ATOM    499  C5  A   B  59      24.483 -14.516  15.234  0.00  0.00    +0.000 A 
ATOM    500  C6  A   B  59      25.063 -13.241  15.349  0.00  0.00    +0.000 A 
ATOM    501  N6  A   B  59      25.904 -12.898  16.338  0.00  0.00    +0.000 N 
ATOM    502  N1  A   B  59      24.757 -12.321  14.409  0.00  0.00    +0.000 NA
ATOM    503  C2  A   B  59      23.921 -12.664  13.418  0.00  0.00    +0.000 A 
ATOM    504  N3  A   B  59      23.311 -13.831  13.205  0.00  0.00    +0.000 NA
ATOM    505  C4  A   B  59      23.640 -14.723  14.162  0.00  0.00    +0.000 A 
ATOM    506  H   A   B  59      26.282 -11.989  16.370  0.00  0.00    +0.000 HD
ATOM    507  H   A   B  59      26.143 -13.555  17.031  0.00  0.00    +0.000 HD
ENDBRANCH 495 496
BRANCH 494 508
ATOM    508  O2' A   B  59      21.814 -16.902  11.019  0.00  0.00    +0.000 OA
ATOM    509  H   A   B  59      21.142 -17.555  11.268  0.00  0.00    +0.000 HD
ENDBRANCH 494 508
BRANCH 493 510
ATOM    510  O3' A   B  59      23.629 -18.981  10.852  0.00  0.00    +0.000 OA
BRANCH 510 511
ATOM    511  P   G   B  60      25.106 -19.313  10.304  0.00  0.00    +0.000 P 
ATOM    512  OP1 G   B  60      24.978 -20.296   9.201  0.00  0.00    +0.000 OA
BRANCH 511 513
ATOM    513  OP2 G   B  60      25.978 -19.617  11.466  0.00  0.00    +0.000 OA
ATOM    514  H   G   B  60      26.874 -19.820  11.154  0.00  0.00    +0.000 HD
ENDBRANCH 511 513
BRANCH 511 515
ATOM    515  O5' G   B  60      25.555 -17.918   9.681  0.00  0.00    +0.000 OA
BRANCH 515 516
ATOM    516  C5' G   B  60      24.745 -17.254   8.719  0.00  0.00    +0.000 C 
BRANCH 516 517
ATOM    517  C4' G   B  60      25.059 -15.778   8.663  0.00  0.00    +0.000 C 
ATOM    518  O4' G   B  60      24.845 -15.188   9.964  0.00  0.00    +0.000 OA
ATOM    519  C3' G   B  60      26.488 -15.417   8.328  0.00  0.00    +0.000 C 
ATOM    520  C2' G   B  60      26.645 -14.019   8.932  0.00  0.00    +0.000 C 
ATOM    521  C1' G   B  60      25.704 -14.086  10.142  0.00  0.00    +0.000 C 
BRANCH 521 522
ATOM    522  N9  G   B  60      26.408 -14.210  11.430  0.00  0.00    +0.000 N 
ATOM    523  C8  G   B  60      26.527 -15.321  12.222  0.00  0.00    +0.000 A 
ATOM    524  N7  G   B  60      27.200 -15.095  13.323  0.00  0.00    +0.000 NA
ATOM    525  C5  G   B  60      27.541 -13.748  13.251  0.00  0.00    +0.000 A 
ATOM    526  C6  G   B  60      28.268 -12.928  14.152  0.00  0.00    +0.000 A 
ATOM    527  O6  G   B  60      28.782 -13.235  15.242  0.00  0.00    +0.000 OA
ATOM    528  N1  G   B  60      28.378 -11.624  13.686  0.00  0.00    +0.000 NA
ATOM    529  C2  G   B  60      27.855 -11.162  12.502  0.00  0.00    +0.000 A 
ATOM    530  N2  G   B  60      28.061  -9.867  12.220  0.00  0.00    +0.000 N 
ATOM    531  N3  G   B  60      27.173 -11.917  11.655  0.00  0.00    +0.000 N 
ATOM    532  C4  G   B  60      27.055 -13.191  12.091  0.00  0.00    +0.000 A 
ATOM    533  H   G   B  60      27.708  -9.483  11.385  0.00  0.00    +0.000 HD
ATOM    534  H   G   B  60      28.565  -9.301  12.848  0.00  0.00    +0.000 HD
ATOM    535  H   G   B  60      26.796 -11.589  10.807  0.00  0.00    +0.000 HD
ENDBRANCH 521 522
BRANCH 520 536
ATOM    536  O2' G   B  60      26.178 -13.017   8.036  0.00  0.00    +0.000 OA
ATOM    537  H   G   B  60      25.255 -13.200   7.799  0.00  0.00    +0.000 HD
ENDBRANCH 520 536
BRANCH 519 538
ATOM    538  O3' G   B  60      26.713 -15.426   6.925  0.00  0.00    +0.000 OA
BRANCH 538 539
ATOM    539  P   A   B  61      27.656 -16.538   6.255  0.00  0.00    +0.000 P 
ATOM    540  OP1 A   B  61      26.849 -17.304   5.265  0.00  0.00    +0.000 OA
BRANCH 539 541
ATOM    541  OP2 A   B  61      28.369 -17.265   7.322  0.00  0.00    +0.000 OA
ATOM    542  H   A   B  61      28.942 -17.940   6.926  0.00  0.00    +0.000 HD
ENDBRANCH 539 541
BRANCH 539 543
ATOM    543  O5' A   B  61      28.725 -15.660   5.455  0.00  0.00    +0.000 OA
BRANCH 543 544
ATOM    544  C5' A   B  61      29.387 -14.582   6.082  0.00  0.00    +0.000 C 
BRANCH 544 545
ATOM    545  C4' A   B  61      30.053 -13.684   5.072  0.00  0.00    +0.000 C 
ATOM    546  O4' A   B  61      30.950 -14.461   4.241  0.00  0.00    +0.000 OA
ATOM    547  C3' A   B  61      29.129 -13.004   4.076  0.00  0.00    +0.000 C 
ATOM    548  C2' A   B  61      30.058 -12.716   2.907  0.00  0.00    +0.000 C 
ATOM    549  C1' A   B  61      30.937 -13.955   2.920  0.00  0.00    +0.000 C 
BRANCH 549 550
ATOM    550  N9  A   B  61      30.421 -15.004   2.023  0.00  0.00    +0.000 N 
ATOM    551  C8  A   B  61      29.702 -16.122   2.363  0.00  0.00    +0.000 A 
ATOM    552  N7  A   B  61      29.384 -16.875   1.331  0.00  0.00    +0.000 NA
ATOM    553  C5  A   B  61      29.934 -16.209   0.246  0.00  0.00    +0.000 A 
ATOM    554  C6  A   B  61      29.951 -16.490  -1.128  0.00  0.00    +0.000 A 
ATOM    555  N1  A   B  61      30.583 -15.616  -1.940  0.00  0.00    +0.000 NA
ATOM    556  C2  A   B  61      31.164 -14.536  -1.399  0.00  0.00    +0.000 A 
ATOM    557  N3  A   B  61      31.217 -14.165  -0.124  0.00  0.00    +0.000 NA
ATOM    558  C4  A   B  61      30.575 -15.055   0.658  0.00  0.00    +0.000 A 
BRANCH 554 559
ATOM    559  N6  A   B  61      29.369 -17.566  -1.670  0.00  0.00    +0.000 N 
ATOM    560  H   A   B  61      29.413 -17.712  -2.643  0.00  0.00    +0.000 HD
ATOM    561  H   A   B  61      28.897 -18.212  -1.096  0.00  0.00    +0.000 HD
ENDBRANCH 554 559
ENDBRANCH 549 550
BRANCH 548 562
ATOM    562  O2' A   B  61      30.868 -11.577   3.153  0.00  0.00    +0.000 OA
ATOM    563  H   A   B  61      31.363 -11.704   3.978  0.00  0.00    +0.000 HD
ENDBRANCH 548 562
BRANCH 547 564
ATOM    564  O3' A   B  61      28.508 -11.835   4.600  0.00  0.00    +0.000 OA
BRANCH 564 565
ATOM    565  P   C   B  62      27.101 -11.336   4.009  0.00  0.00    +0.000 P 
ATOM    566  OP2 C   B  62      26.290 -12.533   3.669  0.00  0.00    +0.000 OA
BRANCH 565 567
ATOM    567  OP1 C   B  62      26.560 -10.309   4.932  0.00  0.00    +0.000 OA
ATOM    568  H   C   B  62      25.707  -9.990   4.597  0.00  0.00    +0.000 HD
ENDBRANCH 565 567
BRANCH 565 569
ATOM    569  O5' C   B  62      27.518 -10.609   2.653  0.00  0.00    +0.000 OA
BRANCH 569 570
ATOM    570  C5' C   B  62      28.394  -9.487   2.669  0.00  0.00    +0.000 C 
BRANCH 570 571
ATOM    571  C4' C   B  62      28.784  -9.076   1.272  0.00  0.00    +0.000 C 
ATOM    572  O4' C   B  62      29.557 -10.130   0.641  0.00  0.00    +0.000 OA
ATOM    573  C3' C   B  62      27.638  -8.845   0.309  0.00  0.00    +0.000 C 
ATOM    574  C2' C   B  62      28.304  -9.029  -1.048  0.00  0.00    +0.000 C 
ATOM    575  C1' C   B  62      29.281 -10.164  -0.746  0.00  0.00    +0.000 C 
BRANCH 575 576
ATOM    576  N1  C   B  62      28.717 -11.492  -1.078  0.00  0.00    +0.000 N 
ATOM    577  C2  C   B  62      28.795 -11.940  -2.400  0.00  0.00    +0.000 A 
ATOM    578  O2  C   B  62      29.333 -11.213  -3.252  0.00  0.00    +0.000 OA
ATOM    579  N3  C   B  62      28.284 -13.154  -2.720  0.00  0.00    +0.000 NA
ATOM    580  C4  C   B  62      27.711 -13.910  -1.780  0.00  0.00    +0.000 A 
ATOM    581  N4  C   B  62      27.222 -15.099  -2.142  0.00  0.00    +0.000 N 
ATOM    582  C5  C   B  62      27.618 -13.477  -0.430  0.00  0.00    +0.000 A 
ATOM    583  C6  C   B  62      28.128 -12.278  -0.124  0.00  0.00    +0.000 A 
ATOM    584  H   C   B  62      27.289 -15.394  -3.079  0.00  0.00    +0.000 HD
ATOM    585  H   C   B  62      26.795 -15.680  -1.472  0.00  0.00    +0.000 HD
ENDBRANCH 575 576
BRANCH 574 586
ATOM    586  O2' C   B  62      29.047  -7.880  -1.420  0.00  0.00    +0.000 OA
ATOM    587  H   C   B  62      29.695  -7.676  -0.728  0.00  0.00    +0.000 HD
ENDBRANCH 574 586
BRANCH 573 588
ATOM    588  O3' C   B  62      27.037  -7.570   0.474  0.00  0.00    +0.000 OA
BRANCH 588 589
ATOM    589  P   U   B  63      25.463  -7.412   0.193  0.00  0.00    +0.000 P 
ATOM    590  OP2 U   B  63      24.771  -8.648   0.646  0.00  0.00    +0.000 OA
BRANCH 589 591
ATOM    591  OP1 U   B  63      25.043  -6.090   0.722  0.00  0.00    +0.000 OA
ATOM    592  H   U   B  63      25.592  -5.395   0.327  0.00  0.00    +0.000 HD
ENDBRANCH 589 591
BRANCH 589 593
ATOM    593  O5' U   B  63      25.391  -7.354  -1.398  0.00  0.00    +0.000 OA
BRANCH 593 594
ATOM    594  C5' U   B  63      26.045  -6.321  -2.118  0.00  0.00    +0.000 C 
BRANCH 594 595
ATOM    595  C4' U   B  63      26.096  -6.622  -3.594  0.00  0.00    +0.000 C 
ATOM    596  O4' U   B  63      26.910  -7.801  -3.833  0.00  0.00    +0.000 OA
ATOM    597  C3' U   B  63      24.773  -6.957  -4.250  0.00  0.00    +0.000 C 
ATOM    598  C2' U   B  63      25.212  -7.724  -5.491  0.00  0.00    +0.000 C 
ATOM    599  C1' U   B  63      26.403  -8.514  -4.945  0.00  0.00    +0.000 C 
BRANCH 599 600
ATOM    600  N1  U   B  63      26.002  -9.869  -4.502  0.00  0.00    +0.000 N 
ATOM    601  C2  U   B  63      25.949 -10.862  -5.466  0.00  0.00    +0.000 A 
ATOM    602  O2  U   B  63      26.220 -10.660  -6.639  0.00  0.00    +0.000 OA
ATOM    603  N3  U   B  63      25.571 -12.102  -5.008  0.00  0.00    +0.000 N 
ATOM    604  C4  U   B  63      25.246 -12.443  -3.710  0.00  0.00    +0.000 A 
ATOM    605  O4  U   B  63      24.924 -13.603  -3.450  0.00  0.00    +0.000 OA
ATOM    606  C5  U   B  63      25.322 -11.363  -2.777  0.00  0.00    +0.000 A 
ATOM    607  C6  U   B  63      25.689 -10.144  -3.195  0.00  0.00    +0.000 A 
ATOM    608  H   U   B  63      25.527 -12.823  -5.676  0.00  0.00    +0.000 HD
ENDBRANCH 599 600
BRANCH 598 609
ATOM    609  O2' U   B  63      25.683  -6.844  -6.501  0.00  0.00    +0.000 OA
ATOM    610  H   U   B  63      26.400  -6.296  -6.144  0.00  0.00    +0.000 HD
ENDBRANCH 598 609
BRANCH 597 611
ATOM    611  O3' U   B  63      23.990  -5.811  -4.539  0.00  0.00    +0.000 OA
BRANCH 611 612
ATOM    612  P   A   B  64      22.384  -5.931  -4.529  0.00  0.00    +0.000 P 
ATOM    613  OP1 A   B  64      21.818  -4.561  -4.592  0.00  0.00    +0.000 OA
BRANCH 612 614
ATOM    614  OP2 A   B  64      21.982  -6.852  -3.433  0.00  0.00    +0.000 OA
ATOM    615  H   A   B  64      21.015  -6.933  -3.417  0.00  0.00    +0.000 HD
ENDBRANCH 612 614
BRANCH 612 616
ATOM    616  O5' A   B  64      22.077  -6.652  -5.916  0.00  0.00    +0.000 OA
BRANCH 616 617
ATOM    617  C5' A   B  64      22.419  -6.031  -7.142  0.00  0.00    +0.000 C 
BRANCH 617 618
ATOM    618  C4' A   B  64      22.346  -6.998  -8.295  0.00  0.00    +0.000 C 
ATOM    619  O4' A   B  64      23.299  -8.075  -8.101  0.00  0.00    +0.000 OA
ATOM    620  C3' A   B  64      21.024  -7.718  -8.482  0.00  0.00    +0.000 C 
ATOM    621  C2' A   B  64      21.438  -8.937  -9.294  0.00  0.00    +0.000 C 
ATOM    622  C1' A   B  64      22.787  -9.270  -8.660  0.00  0.00    +0.000 C 
BRANCH 622 623
ATOM    623  N9  A   B  64      22.649 -10.279  -7.599  0.00  0.00    +0.000 N 
ATOM    624  C8  A   B  64      22.601 -10.083  -6.244  0.00  0.00    +0.000 A 
ATOM    625  N7  A   B  64      22.471 -11.194  -5.558  0.00  0.00    +0.000 NA
ATOM    626  C5  A   B  64      22.427 -12.187  -6.528  0.00  0.00    +0.000 A 
ATOM    627  C6  A   B  64      22.301 -13.586  -6.453  0.00  0.00    +0.000 A 
ATOM    628  N6  A   B  64      22.186 -14.257  -5.298  0.00  0.00    +0.000 N 
ATOM    629  N1  A   B  64      22.294 -14.276  -7.609  0.00  0.00    +0.000 NA
ATOM    630  C2  A   B  64      22.407 -13.605  -8.760  0.00  0.00    +0.000 A 
ATOM    631  N3  A   B  64      22.532 -12.294  -8.958  0.00  0.00    +0.000 NA
ATOM    632  C4  A   B  64      22.534 -11.636  -7.787  0.00  0.00    +0.000 A 
ATOM    633  H   A   B  64      22.101 -15.238  -5.305  0.00  0.00    +0.000 HD
ATOM    634  H   A   B  64      22.187 -13.769  -4.443  0.00  0.00    +0.000 HD
ENDBRANCH 622 623
BRANCH 621 635
ATOM    635  O2' A   B  64      21.651  -8.602 -10.657  0.00  0.00    +0.000 OA
ATOM    636  H   A   B  64      22.308  -7.891 -10.716  0.00  0.00    +0.000 HD
ENDBRANCH 621 635
BRANCH 620 637
ATOM    637  O3' A   B  64      20.040  -6.923  -9.117  0.00  0.00    +0.000 OA
BRANCH 637 638
ATOM    638  P   C   B  65      18.498  -7.092  -8.692  0.00  0.00    +0.000 P 
ATOM    639  OP1 C   B  65      17.719  -6.095  -9.474  0.00  0.00    +0.000 OA
BRANCH 638 640
ATOM    640  OP2 C   B  65      18.399  -7.108  -7.212  0.00  0.00    +0.000 OA
ATOM    641  H   C   B  65      17.470  -7.210  -6.951  0.00  0.00    +0.000 HD
ENDBRANCH 638 640
BRANCH 638 642
ATOM    642  O5' C   B  65      18.135  -8.552  -9.227  0.00  0.00    +0.000 OA
BRANCH 642 643
ATOM    643  C5' C   B  65      18.037  -8.796 -10.611  0.00  0.00    +0.000 C 
BRANCH 643 644
ATOM    644  C4' C   B  65      18.155 -10.261 -10.949  0.00  0.00    +0.000 C 
ATOM    645  O4' C   B  65      19.216 -10.883 -10.181  0.00  0.00    +0.000 OA
ATOM    646  C3' C   B  65      16.952 -11.129 -10.653  0.00  0.00    +0.000 C 
ATOM    647  C2' C   B  65      17.565 -12.525 -10.652  0.00  0.00    +0.000 C 
ATOM    648  C1' C   B  65      18.931 -12.258 -10.012  0.00  0.00    +0.000 C 
BRANCH 648 649
ATOM    649  N1  C   B  65      18.950 -12.607  -8.579  0.00  0.00    +0.000 N 
ATOM    650  C2  C   B  65      19.079 -13.960  -8.237  0.00  0.00    +0.000 A 
ATOM    651  O2  C   B  65      19.174 -14.801  -9.141  0.00  0.00    +0.000 OA
ATOM    652  N3  C   B  65      19.100 -14.319  -6.933  0.00  0.00    +0.000 NA
ATOM    653  C4  C   B  65      18.997 -13.385  -5.986  0.00  0.00    +0.000 A 
ATOM    654  N4  C   B  65      19.024 -13.790  -4.715  0.00  0.00    +0.000 N 
ATOM    655  C5  C   B  65      18.864 -12.000  -6.306  0.00  0.00    +0.000 A 
ATOM    656  C6  C   B  65      18.847 -11.657  -7.601  0.00  0.00    +0.000 A 
ATOM    657  H   C   B  65      19.116 -14.747  -4.505  0.00  0.00    +0.000 HD
ATOM    658  H   C   B  65      18.952 -13.131  -3.987  0.00  0.00    +0.000 HD
ENDBRANCH 648 649
BRANCH 647 659
ATOM    659  O2' C   B  65      17.774 -12.996 -11.968  0.00  0.00    +0.000 OA
ATOM    660  H   C   B  65      18.327 -12.364 -12.454  0.00  0.00    +0.000 HD
ENDBRANCH 647 659
BRANCH 646 661
ATOM    661  O3' C   B  65      15.918 -10.981 -11.610  0.00  0.00    +0.000 OA
BRANCH 661 662
ATOM    662  P   A   B  66      14.427 -11.437 -11.253  0.00  0.00    +0.000 P 
ATOM    663  OP1 A   B  66      13.531 -10.899 -12.306  0.00  0.00    +0.000 OA
BRANCH 662 664
ATOM    664  OP2 A   B  66      14.171 -11.120  -9.825  0.00  0.00    +0.000 OA
ATOM    665  H   A   B  66      14.137 -10.158  -9.708  0.00  0.00    +0.000 HD
ENDBRANCH 662 664
BRANCH 662 666
ATOM    666  O5' A   B  66      14.476 -13.021 -11.406  0.00  0.00    +0.000 OA
BRANCH 666 667
ATOM    667  C5' A   B  66      14.831 -13.619 -12.641  0.00  0.00    +0.000 C 
BRANCH 667 668
ATOM    668  C4' A   B  66      15.017 -15.108 -12.490  0.00  0.00    +0.000 C 
ATOM    669  O4' A   B  66      16.103 -15.380 -11.576  0.00  0.00    +0.000 OA
ATOM    670  C3' A   B  66      13.835 -15.853 -11.901  0.00  0.00    +0.000 C 
ATOM    671  C2' A   B  66      14.484 -17.097 -11.316  0.00  0.00    +0.000 C 
ATOM    672  C1' A   B  66      15.824 -16.546 -10.827  0.00  0.00    +0.000 C 
BRANCH 672 673
ATOM    673  N9  A   B  66      15.811 -16.193  -9.399  0.00  0.00    +0.000 N 
ATOM    674  C8  A   B  66      15.679 -14.945  -8.848  0.00  0.00    +0.000 A 
ATOM    675  N7  A   B  66      15.713 -14.940  -7.537  0.00  0.00    +0.000 NA
ATOM    676  C5  A   B  66      15.883 -16.275  -7.203  0.00  0.00    +0.000 A 
ATOM    677  C6  A   B  66      15.999 -16.935  -5.968  0.00  0.00    +0.000 A 
ATOM    678  N6  A   B  66      15.954 -16.305  -4.787  0.00  0.00    +0.000 N 
ATOM    679  N1  A   B  66      16.157 -18.273  -5.984  0.00  0.00    +0.000 NA
ATOM    680  C2  A   B  66      16.202 -18.902  -7.164  0.00  0.00    +0.000 A 
ATOM    681  N3  A   B  66      16.107 -18.391  -8.390  0.00  0.00    +0.000 NA
ATOM    682  C4  A   B  66      15.947 -17.056  -8.338  0.00  0.00    +0.000 A 
ATOM    683  H   A   B  66      15.839 -15.328  -4.754  0.00  0.00    +0.000 HD
ATOM    684  H   A   B  66      16.036 -16.819  -3.951  0.00  0.00    +0.000 HD
ENDBRANCH 672 673
BRANCH 671 685
ATOM    685  O2' A   B  66      14.730 -18.069 -12.321  0.00  0.00    +0.000 OA
ATOM    686  H   A   B  66      15.275 -17.678 -13.022  0.00  0.00    +0.000 HD
ENDBRANCH 671 685
BRANCH 670 687
ATOM    687  O3' A   B  66      12.840 -16.134 -12.870  0.00  0.00    +0.000 OA
BRANCH 687 688
ATOM    688  P   A   B  67      11.316 -15.938 -12.538  0.00  0.00    +0.000 P 
ATOM    689  OP1 A   B  67      10.562 -15.923 -13.810  0.00  0.00    +0.000 OA
BRANCH 688 690
ATOM    690  OP2 A   B  67      11.182 -14.805 -11.587  0.00  0.00    +0.000 OA
ATOM    691  H   A   B  67      11.392 -13.974 -12.042  0.00  0.00    +0.000 HD
ENDBRANCH 688 690
BRANCH 688 692
ATOM    692  O5' A   B  67      10.965 -17.280 -11.760  0.00  0.00    +0.000 OA
BRANCH 692 693
ATOM    693  C5' A   B  67      11.214 -18.544 -12.351  0.00  0.00    +0.000 C 
BRANCH 693 694
ATOM    694  C4' A   B  67      11.270 -19.629 -11.306  0.00  0.00    +0.000 C 
ATOM    695  O4' A   B  67      12.428 -19.437 -10.456  0.00  0.00    +0.000 OA
ATOM    696  C3' A   B  67      10.105 -19.657 -10.336  0.00  0.00    +0.000 C 
ATOM    697  C2' A   B  67      10.698 -20.362  -9.130  0.00  0.00    +0.000 C 
ATOM    698  C1' A   B  67      12.125 -19.812  -9.132  0.00  0.00    +0.000 C 
BRANCH 698 699
ATOM    699  N9  A   B  67      12.268 -18.625  -8.270  0.00  0.00    +0.000 N 
ATOM    700  C8  A   B  67      12.118 -17.309  -8.625  0.00  0.00    +0.000 A 
ATOM    701  N7  A   B  67      12.304 -16.474  -7.630  0.00  0.00    +0.000 NA
ATOM    702  C5  A   B  67      12.597 -17.293  -6.550  0.00  0.00    +0.000 A 
ATOM    703  C6  A   B  67      12.896 -17.020  -5.206  0.00  0.00    +0.000 A 
ATOM    704  N6  A   B  67      12.945 -15.781  -4.696  0.00  0.00    +0.000 N 
ATOM    705  N1  A   B  67      13.140 -18.066  -4.394  0.00  0.00    +0.000 NA
ATOM    706  C2  A   B  67      13.086 -19.302  -4.901  0.00  0.00    +0.000 A 
ATOM    707  N3  A   B  67      12.816 -19.686  -6.146  0.00  0.00    +0.000 NA
ATOM    708  C4  A   B  67      12.577 -18.619  -6.930  0.00  0.00    +0.000 A 
ATOM    709  H   A   B  67      12.770 -15.004  -5.274  0.00  0.00    +0.000 HD
ATOM    710  H   A   B  67      13.156 -15.649  -3.744  0.00  0.00    +0.000 HD
ENDBRANCH 698 699
BRANCH 697 711
ATOM    711  O2' A   B  67      10.751 -21.762  -9.328  0.00  0.00    +0.000 OA
ATOM    712  H   A   B  67      11.250 -21.955 -10.137  0.00  0.00    +0.000 HD
ENDBRANCH 697 711
BRANCH 696 713
ATOM    713  O3' A   B  67       8.969 -20.299 -10.870  0.00  0.00    +0.000 OA
BRANCH 713 714
ATOM    714  P   A   B  68       7.551 -19.774 -10.595  0.00  0.00    +0.000 P 
ATOM    715  OP1 A   B  68       6.721 -20.041 -11.786  0.00  0.00    +0.000 OA
BRANCH 714 716
ATOM    716  OP2 A   B  68       7.637 -18.400 -10.046  0.00  0.00    +0.000 OA
ATOM    717  H   A   B  68       7.926 -17.791 -10.743  0.00  0.00    +0.000 HD
ENDBRANCH 714 716
BRANCH 714 718
ATOM    718  O5' A   B  68       7.077 -20.736  -9.425  0.00  0.00    +0.000 OA
BRANCH 718 719
ATOM    719  C5' A   B  68       6.739 -22.081  -9.710  0.00  0.00    +0.000 C 
BRANCH 719 720
ATOM    720  C4' A   B  68       5.332 -22.389  -9.268  0.00  0.00    +0.000 C 
ATOM    721  O4' A   B  68       5.358 -22.876  -7.900  0.00  0.00    +0.000 OA
ATOM    722  C3' A   B  68       4.376 -21.193  -9.281  0.00  0.00    +0.000 C 
ATOM    723  C2' A   B  68       4.383 -20.738  -7.835  0.00  0.00    +0.000 C 
ATOM    724  C1' A   B  68       4.551 -22.058  -7.085  0.00  0.00    +0.000 C 
BRANCH 724 725
ATOM    725  N9  A   B  68       5.217 -21.926  -5.790  0.00  0.00    +0.000 N 
ATOM    726  C8  A   B  68       5.899 -20.837  -5.299  0.00  0.00    +0.000 A 
ATOM    727  N7  A   B  68       6.391 -21.016  -4.099  0.00  0.00    +0.000 NA
ATOM    728  C5  A   B  68       6.006 -22.313  -3.781  0.00  0.00    +0.000 A 
ATOM    729  C6  A   B  68       6.220 -23.109  -2.647  0.00  0.00    +0.000 A 
ATOM    730  N6  A   B  68       6.904 -22.689  -1.569  0.00  0.00    +0.000 N 
ATOM    731  N1  A   B  68       5.701 -24.362  -2.646  0.00  0.00    +0.000 NA
ATOM    732  C2  A   B  68       5.020 -24.779  -3.718  0.00  0.00    +0.000 A 
ATOM    733  N3  A   B  68       4.752 -24.125  -4.848  0.00  0.00    +0.000 NA
ATOM    734  C4  A   B  68       5.283 -22.884  -4.811  0.00  0.00    +0.000 A 
ATOM    735  H   A   B  68       7.288 -21.783  -1.552  0.00  0.00    +0.000 HD
ATOM    736  H   A   B  68       7.021 -23.288  -0.796  0.00  0.00    +0.000 HD
ENDBRANCH 724 725
BRANCH 723 737
ATOM    737  O2' A   B  68       3.199 -20.069  -7.426  0.00  0.00    +0.000 OA
ATOM    738  H   A   B  68       2.436 -20.654  -7.555  0.00  0.00    +0.000 HD
ENDBRANCH 723 737
BRANCH 722 739
ATOM    739  O3' A   B  68       3.066 -21.601  -9.655  0.00  0.00    +0.000 OA
BRANCH 739 740
ATOM    740  P   A   B  69       2.836 -22.095 -11.130  0.00  0.00    +0.000 P 
ATOM    741  OP1 A   B  69       4.039 -21.817 -11.926  0.00  0.00    +0.000 OA
BRANCH 740 742
ATOM    742  OP2 A   B  69       1.513 -21.587 -11.591  0.00  0.00    +0.000 OA
ATOM    743  H   A   B  69       1.353 -21.882 -12.501  0.00  0.00    +0.000 HD
ENDBRANCH 740 742
BRANCH 740 744
ATOM    744  O5' A   B  69       2.720 -23.673 -10.926  0.00  0.00    +0.000 OA
BRANCH 744 745
ATOM    745  C5' A   B  69       2.935 -24.559 -11.996  0.00  0.00    +0.000 C 
BRANCH 745 746
ATOM    746  C4' A   B  69       1.653 -25.235 -12.411  0.00  0.00    +0.000 C 
ATOM    747  O4' A   B  69       0.794 -25.397 -11.261  0.00  0.00    +0.000 OA
ATOM    748  C3' A   B  69       0.801 -24.454 -13.401  0.00  0.00    +0.000 C 
ATOM    749  C2' A   B  69      -0.606 -24.968 -13.131  0.00  0.00    +0.000 C 
ATOM    750  C1' A   B  69      -0.560 -25.220 -11.623  0.00  0.00    +0.000 C 
BRANCH 750 751
ATOM    751  N9  A   B  69      -1.108 -24.109 -10.832  0.00  0.00    +0.000 N 
ATOM    752  C8  A   B  69      -0.411 -23.159 -10.138  0.00  0.00    +0.000 A 
ATOM    753  N7  A   B  69      -1.174 -22.293  -9.510  0.00  0.00    +0.000 NA
ATOM    754  C5  A   B  69      -2.462 -22.710  -9.813  0.00  0.00    +0.000 A 
ATOM    755  C6  A   B  69      -3.729 -22.212  -9.455  0.00  0.00    +0.000 A 
ATOM    756  N6  A   B  69      -3.904 -21.134  -8.675  0.00  0.00    +0.000 N 
ATOM    757  N1  A   B  69      -4.816 -22.858  -9.927  0.00  0.00    +0.000 NA
ATOM    758  C2  A   B  69      -4.636 -23.933 -10.704  0.00  0.00    +0.000 A 
ATOM    759  N3  A   B  69      -3.501 -24.490 -11.110  0.00  0.00    +0.000 NA
ATOM    760  C4  A   B  69      -2.437 -23.826 -10.623  0.00  0.00    +0.000 A 
ATOM    761  H   A   B  69      -4.814 -20.828  -8.455  0.00  0.00    +0.000 HD
ATOM    762  H   A   B  69      -3.123 -20.649  -8.323  0.00  0.00    +0.000 HD
ENDBRANCH 750 751
BRANCH 749 763
ATOM    763  O2' A   B  69      -0.844 -26.191 -13.799  0.00  0.00    +0.000 OA
ATOM    764  H   A   B  69      -0.173 -26.840 -13.535  0.00  0.00    +0.000 HD
ENDBRANCH 749 763
BRANCH 748 765
ATOM    765  O3' A   B  69       1.219 -24.660 -14.742  0.00  0.00    +0.000 OA
BRANCH 765 766
ATOM    766  P   A   B  70       1.890 -23.502 -15.557  0.00  0.00    +0.000 P 
ATOM    767  OP1 A   B  70       2.696 -24.109 -16.640  0.00  0.00    +0.000 OA
BRANCH 766 768
ATOM    768  OP2 A   B  70       2.524 -22.554 -14.604  0.00  0.00    +0.000 OA
ATOM    769  H   A   B  70       2.943 -21.832 -15.097  0.00  0.00    +0.000 HD
ENDBRANCH 766 768
BRANCH 766 770
ATOM    770  O5' A   B  70       0.639 -22.792 -16.212  0.00  0.00    +0.000 OA
BRANCH 770 771
ATOM    771  C5' A   B  70      -0.190 -23.495 -17.135  0.00  0.00    +0.000 C 
BRANCH 771 772
ATOM    772  C4' A   B  70      -1.534 -22.823 -17.277  0.00  0.00    +0.000 C 
ATOM    773  O4' A   B  70      -2.307 -23.008 -16.066  0.00  0.00    +0.000 OA
ATOM    774  C3' A   B  70      -1.509 -21.314 -17.457  0.00  0.00    +0.000 C 
ATOM    775  C2' A   B  70      -2.897 -20.905 -16.994  0.00  0.00    +0.000 C 
ATOM    776  C1' A   B  70      -3.105 -21.869 -15.826  0.00  0.00    +0.000 C 
BRANCH 776 777
ATOM    777  N9  A   B  70      -2.688 -21.265 -14.547  0.00  0.00    +0.000 N 
ATOM    778  C8  A   B  70      -1.434 -21.230 -13.995  0.00  0.00    +0.000 A 
ATOM    779  N7  A   B  70      -1.382 -20.613 -12.840  0.00  0.00    +0.000 NA
ATOM    780  C5  A   B  70      -2.692 -20.206 -12.621  0.00  0.00    +0.000 A 
ATOM    781  C6  A   B  70      -3.302 -19.505 -11.571  0.00  0.00    +0.000 A 
ATOM    782  N6  A   B  70      -2.634 -19.056 -10.498  0.00  0.00    +0.000 N 
ATOM    783  N1  A   B  70      -4.624 -19.269 -11.659  0.00  0.00    +0.000 NA
ATOM    784  C2  A   B  70      -5.286 -19.710 -12.735  0.00  0.00    +0.000 A 
ATOM    785  N3  A   B  70      -4.826 -20.382 -13.787  0.00  0.00    +0.000 NA
ATOM    786  C4  A   B  70      -3.505 -20.603 -13.666  0.00  0.00    +0.000 A 
ATOM    787  H   A   B  70      -1.667 -19.219 -10.417  0.00  0.00    +0.000 HD
ATOM    788  H   A   B  70      -3.111 -18.563  -9.792  0.00  0.00    +0.000 HD
ENDBRANCH 776 777
BRANCH 775 789
ATOM    789  O2' A   B  70      -3.871 -21.167 -17.989  0.00  0.00    +0.000 OA
ATOM    790  H   A   B  70      -3.835 -22.104 -18.238  0.00  0.00    +0.000 HD
ENDBRANCH 775 789
BRANCH 774 791
ATOM    791  O3' A   B  70      -1.205 -20.913 -18.782  0.00  0.00    +0.000 OA
BRANCH 791 792
ATOM    792  P   U   B  71      -0.028 -19.837 -18.979  0.00  0.00    +0.000 P 
ATOM    793  OP1 U   B  71       0.576 -20.085 -20.315  0.00  0.00    +0.000 OA
BRANCH 792 794
ATOM    794  OP2 U   B  71       0.835 -19.809 -17.783  0.00  0.00    +0.000 OA
ATOM    795  H   U   B  71       1.542 -19.158 -17.910  0.00  0.00    +0.000 HD
ENDBRANCH 792 794
BRANCH 792 796
ATOM    796  O5' U   B  71      -0.828 -18.462 -19.038  0.00  0.00    +0.000 OA
BRANCH 796 797
ATOM    797  C5' U   B  71      -1.957 -18.355 -19.899  0.00  0.00    +0.000 C 
BRANCH 797 798
ATOM    798  C4' U   B  71      -2.476 -16.939 -19.982  0.00  0.00    +0.000 C 
ATOM    799  O4' U   B  71      -3.404 -16.849 -21.089  0.00  0.00    +0.000 OA
ATOM    800  C3' U   B  71      -3.268 -16.461 -18.769  0.00  0.00    +0.000 C 
ATOM    801  C2' U   B  71      -4.192 -15.406 -19.363  0.00  0.00    +0.000 C 
ATOM    802  C1' U   B  71      -4.428 -15.931 -20.790  0.00  0.00    +0.000 C 
BRANCH 802 803
ATOM    803  N1  U   B  71      -5.731 -16.608 -20.970  0.00  0.00    +0.000 N 
ATOM    804  C2  U   B  71      -5.953 -17.862 -20.464  0.00  0.00    +0.000 A 
ATOM    805  O2  U   B  71      -5.132 -18.504 -19.843  0.00  0.00    +0.000 OA
ATOM    806  N3  U   B  71      -7.195 -18.382 -20.719  0.00  0.00    +0.000 N 
ATOM    807  C4  U   B  71      -8.217 -17.791 -21.417  0.00  0.00    +0.000 A 
ATOM    808  O4  U   B  71      -9.282 -18.389 -21.567  0.00  0.00    +0.000 OA
ATOM    809  C5  U   B  71      -7.914 -16.492 -21.915  0.00  0.00    +0.000 A 
ATOM    810  C6  U   B  71      -6.709 -15.961 -21.682  0.00  0.00    +0.000 A 
ATOM    811  H   U   B  71      -7.374 -19.281 -20.361  0.00  0.00    +0.000 HD
ENDBRANCH 802 803
BRANCH 801 812
ATOM    812  O2' U   B  71      -3.549 -14.157 -19.444  0.00  0.00    +0.000 OA
ATOM    813  H   U   B  71      -2.736 -14.245 -19.965  0.00  0.00    +0.000 HD
ENDBRANCH 801 812
BRANCH 800 814
ATOM    814  O3' U   B  71      -2.408 -15.975 -17.751  0.00  0.00    +0.000 OA
BRANCH 814 815
ATOM    815  P   C   B  72      -2.989 -15.449 -16.373  0.00  0.00    +0.000 P 
ATOM    816  OP2 C   B  72      -3.762 -14.220 -16.679  0.00  0.00    +0.000 OA
BRANCH 815 817
ATOM    817  OP1 C   B  72      -3.641 -16.572 -15.670  0.00  0.00    +0.000 OA
ATOM    818  H   C   B  72      -4.429 -16.848 -16.163  0.00  0.00    +0.000 HD
ENDBRANCH 815 817
BRANCH 815 819
ATOM    819  O5' C   B  72      -1.705 -15.014 -15.551  0.00  0.00    +0.000 OA
BRANCH 819 820
ATOM    820  C5' C   B  72      -0.799 -14.078 -16.088  0.00  0.00    +0.000 C 
BRANCH 820 821
ATOM    821  C4' C   B  72       0.633 -14.432 -15.747  0.00  0.00    +0.000 C 
ATOM    822  O4' C   B  72       1.474 -14.209 -16.903  0.00  0.00    +0.000 OA
ATOM    823  C3' C   B  72       1.271 -13.610 -14.640  0.00  0.00    +0.000 C 
ATOM    824  C2' C   B  72       2.755 -13.662 -14.958  0.00  0.00    +0.000 C 
ATOM    825  C1' C   B  72       2.767 -13.886 -16.481  0.00  0.00    +0.000 C 
BRANCH 825 826
ATOM    826  N1  C   B  72       3.260 -12.739 -17.268  0.00  0.00    +0.000 N 
ATOM    827  C2  C   B  72       2.413 -11.696 -17.613  0.00  0.00    +0.000 A 
ATOM    828  O2  C   B  72       1.231 -11.703 -17.266  0.00  0.00    +0.000 OA
ATOM    829  N3  C   B  72       2.910 -10.678 -18.350  0.00  0.00    +0.000 NA
ATOM    830  C4  C   B  72       4.191 -10.681 -18.745  0.00  0.00    +0.000 A 
ATOM    831  N4  C   B  72       4.624  -9.653 -19.471  0.00  0.00    +0.000 N 
ATOM    832  C5  C   B  72       5.074 -11.739 -18.405  0.00  0.00    +0.000 A 
ATOM    833  C6  C   B  72       4.569 -12.736 -17.681  0.00  0.00    +0.000 A 
ATOM    834  H   C   B  72       5.559  -9.626 -19.777  0.00  0.00    +0.000 HD
ATOM    835  H   C   B  72       4.009  -8.920 -19.702  0.00  0.00    +0.000 HD
ENDBRANCH 825 826
BRANCH 824 836
ATOM    836  O2' C   B  72       3.376 -14.770 -14.314  0.00  0.00    +0.000 OA
ATOM    837  H   C   B  72       2.930 -15.590 -14.579  0.00  0.00    +0.000 HD
ENDBRANCH 824 836
BRANCH 823 838
ATOM    838  O3' C   B  72       0.945 -14.128 -13.372  0.00  0.00    +0.000 OA
BRANCH 838 839
ATOM    839  P   U   B  73       1.348 -13.499 -12.005  0.00  0.00    +0.000 P 
ATOM    840  OP1 U   B  73       1.814 -12.097 -12.154  0.00  0.00    +0.000 OA
BRANCH 839 841
ATOM    841  OP2 U   B  73       2.183 -14.479 -11.292  0.00  0.00    +0.000 OA
ATOM    842  H   U   B  73       3.064 -14.509 -11.697  0.00  0.00    +0.000 HD
ENDBRANCH 839 841
BRANCH 839 843
ATOM    843  O5' U   B  73      -0.082 -13.487 -11.304  0.00  0.00    +0.000 OA
BRANCH 843 844
ATOM    844  C5' U   B  73      -0.745 -12.295 -11.003  0.00  0.00    +0.000 C 
BRANCH 844 845
ATOM    845  C4' U   B  73      -1.134 -12.212  -9.550  0.00  0.00    +0.000 C 
ATOM    846  O4' U   B  73       0.046 -12.357  -8.721  0.00  0.00    +0.000 OA
ATOM    847  C3' U   B  73      -1.732 -10.884  -9.133  0.00  0.00    +0.000 C 
ATOM    848  C2' U   B  73      -1.416 -10.822  -7.640  0.00  0.00    +0.000 C 
ATOM    849  C1' U   B  73      -0.049 -11.521  -7.587  0.00  0.00    +0.000 C 
BRANCH 849 850
ATOM    850  N1  U   B  73       1.085 -10.572  -7.595  0.00  0.00    +0.000 N 
ATOM    851  C2  U   B  73       1.274  -9.745  -6.504  0.00  0.00    +0.000 A 
ATOM    852  O2  U   B  73       0.539  -9.741  -5.535  0.00  0.00    +0.000 OA
ATOM    853  N3  U   B  73       2.354  -8.901  -6.588  0.00  0.00    +0.000 N 
ATOM    854  C4  U   B  73       3.259  -8.814  -7.624  0.00  0.00    +0.000 A 
ATOM    855  O4  U   B  73       4.188  -8.007  -7.549  0.00  0.00    +0.000 OA
ATOM    856  C5  U   B  73       3.012  -9.711  -8.715  0.00  0.00    +0.000 A 
ATOM    857  C6  U   B  73       1.964 -10.546  -8.662  0.00  0.00    +0.000 A 
ATOM    858  H   U   B  73       2.497  -8.293  -5.827  0.00  0.00    +0.000 HD
ENDBRANCH 849 850
BRANCH 848 859
ATOM    859  O2' U   B  73      -2.343 -11.561  -6.884  0.00  0.00    +0.000 OA
ATOM    860  H   U   B  73      -2.363 -12.477  -7.202  0.00  0.00    +0.000 HD
ENDBRANCH 848 859
BRANCH 847 861
ATOM    861  O3' U   B  73      -3.124 -10.809  -9.422  0.00  0.00    +0.000 OA
BRANCH 861 862
ATOM    862  P   C   B  74      -3.660  -9.776 -10.482  0.00  0.00    +0.000 P 
ATOM    863  OP2 C   B  74      -2.714  -9.735 -11.623  0.00  0.00    +0.000 OA
BRANCH 862 864
ATOM    864  OP1 C   B  74      -5.104 -10.047 -10.724  0.00  0.00    +0.000 OA
ATOM    865  H   C   B  74      -5.446  -9.416 -11.376  0.00  0.00    +0.000 HD
ENDBRANCH 862 864
BRANCH 862 866
ATOM    866  O5' C   B  74      -3.548  -8.406  -9.686  0.00  0.00    +0.000 OA
BRANCH 866 867
ATOM    867  C5' C   B  74      -4.281  -8.191  -8.492  0.00  0.00    +0.000 C 
BRANCH 867 868
ATOM    868  C4' C   B  74      -3.731  -7.025  -7.713  0.00  0.00    +0.000 C 
ATOM    869  O4' C   B  74      -2.428  -7.365  -7.168  0.00  0.00    +0.000 OA
ATOM    870  C3' C   B  74      -3.475  -5.766  -8.513  0.00  0.00    +0.000 C 
ATOM    871  C2' C   B  74      -2.432  -5.046  -7.663  0.00  0.00    +0.000 C 
ATOM    872  C1' C   B  74      -1.601  -6.219  -7.147  0.00  0.00    +0.000 C 
BRANCH 872 873
ATOM    873  N1  C   B  74      -0.416  -6.481  -7.989  0.00  0.00    +0.000 N 
ATOM    874  C2  C   B  74       0.733  -5.697  -7.793  0.00  0.00    +0.000 A 
ATOM    875  O2  C   B  74       0.714  -4.814  -6.927  0.00  0.00    +0.000 OA
ATOM    876  N3  C   B  74       1.831  -5.931  -8.559  0.00  0.00    +0.000 NA
ATOM    877  C4  C   B  74       1.815  -6.894  -9.484  0.00  0.00    +0.000 A 
ATOM    878  N4  C   B  74       2.925  -7.079 -10.213  0.00  0.00    +0.000 N 
ATOM    879  C5  C   B  74       0.666  -7.703  -9.698  0.00  0.00    +0.000 A 
ATOM    880  C6  C   B  74      -0.414  -7.469  -8.936  0.00  0.00    +0.000 A 
ATOM    881  H   C   B  74       2.949  -7.780 -10.904  0.00  0.00    +0.000 HD
ATOM    882  H   C   B  74       3.716  -6.514 -10.057  0.00  0.00    +0.000 HD
ENDBRANCH 872 873
BRANCH 871 883
ATOM    883  O2' C   B  74      -3.027  -4.392  -6.566  0.00  0.00    +0.000 OA
ATOM    884  H   C   B  74      -3.533  -5.033  -6.043  0.00  0.00    +0.000 HD
ENDBRANCH 871 883
BRANCH 870 885
ATOM    885  O3' C   B  74      -4.653  -5.005  -8.729  0.00  0.00    +0.000 OA
BRANCH 885 886
ATOM    886  P   C   B  75      -4.970  -4.465 -10.178  0.00  0.00    +0.000 P 
ATOM    887  OP2 C   B  75      -4.738  -5.544 -11.172  0.00  0.00    +0.000 OA
BRANCH 886 888
ATOM    888  OP1 C   B  75      -6.290  -3.785 -10.116  0.00  0.00    +0.000 OA
ATOM    889  H   C   B  75      -6.517  -3.439 -10.993  0.00  0.00    +0.000 HD
ENDBRANCH 886 888
BRANCH 886 890
ATOM    890  O5' C   B  75      -3.846  -3.350 -10.378  0.00  0.00    +0.000 OA
BRANCH 890 891
ATOM    891  C5' C   B  75      -3.742  -2.251  -9.492  0.00  0.00    +0.000 C 
BRANCH 891 892
ATOM    892  C4' C   B  75      -2.410  -1.555  -9.628  0.00  0.00    +0.000 C 
ATOM    893  O4' C   B  75      -1.335  -2.480  -9.311  0.00  0.00    +0.000 OA
ATOM    894  C3' C   B  75      -2.058  -1.057 -11.016  0.00  0.00    +0.000 C 
ATOM    895  C2' C   B  75      -0.536  -0.961 -10.949  0.00  0.00    +0.000 C 
ATOM    896  C1' C   B  75      -0.198  -2.184 -10.100  0.00  0.00    +0.000 C 
BRANCH 896 897
ATOM    897  N1  C   B  75       0.125  -3.366 -10.929  0.00  0.00    +0.000 N 
ATOM    898  C2  C   B  75       1.406  -3.453 -11.496  0.00  0.00    +0.000 A 
ATOM    899  O2  C   B  75       2.223  -2.547 -11.286  0.00  0.00    +0.000 OA
ATOM    900  N3  C   B  75       1.722  -4.530 -12.260  0.00  0.00    +0.000 NA
ATOM    901  C4  C   B  75       0.817  -5.491 -12.469  0.00  0.00    +0.000 A 
ATOM    902  N4  C   B  75       1.171  -6.533 -13.230  0.00  0.00    +0.000 N 
ATOM    903  C5  C   B  75      -0.488  -5.426 -11.904  0.00  0.00    +0.000 A 
ATOM    904  C6  C   B  75      -0.789  -4.360 -11.147  0.00  0.00    +0.000 A 
ATOM    905  H   C   B  75       2.075  -6.574 -13.619  0.00  0.00    +0.000 HD
ATOM    906  H   C   B  75       0.528  -7.259 -13.401  0.00  0.00    +0.000 HD
ENDBRANCH 896 897
BRANCH 895 907
ATOM    907  O2' C   B  75      -0.127   0.198 -10.259  0.00  0.00    +0.000 OA
ATOM    908  H   C   B  75      -0.527   0.206  -9.375  0.00  0.00    +0.000 HD
ENDBRANCH 895 907
BRANCH 894 909
ATOM    909  O3' C   B  75      -2.689   0.175 -11.334  0.00  0.00    +0.000 OA
BRANCH 909 910
ATOM    910  P   A   B  76      -3.202   0.405 -12.828  0.00  0.00    +0.000 P 
ATOM    911  OP2 A   B  76      -3.935  -0.801 -13.279  0.00  0.00    +0.000 OA
BRANCH 910 912
ATOM    912  OP1 A   B  76      -3.871   1.731 -12.844  0.00  0.00    +0.000 OA
ATOM    913  H   A   B  76      -4.201   1.916 -13.737  0.00  0.00    +0.000 HD
ENDBRANCH 910 912
BRANCH 910 914
ATOM    914  O5' A   B  76      -1.849   0.519 -13.673  0.00  0.00    +0.000 OA
BRANCH 914 915
ATOM    915  C5' A   B  76      -0.899   1.532 -13.402  0.00  0.00    +0.000 C 
BRANCH 915 916
ATOM    916  C4' A   B  76       0.434   1.223 -14.041  0.00  0.00    +0.000 C 
ATOM    917  O4' A   B  76       0.906  -0.067 -13.578  0.00  0.00    +0.000 OA
ATOM    918  C3' A   B  76       0.433   1.089 -15.552  0.00  0.00    +0.000 C 
ATOM    919  C2' A   B  76       1.654   0.223 -15.808  0.00  0.00    +0.000 C 
ATOM    920  C1' A   B  76       1.601  -0.729 -14.611  0.00  0.00    +0.000 C 
BRANCH 920 921
ATOM    921  N9  A   B  76       0.889  -1.978 -14.933  0.00  0.00    +0.000 N 
ATOM    922  C8  A   B  76      -0.412  -2.299 -14.646  0.00  0.00    +0.000 A 
ATOM    923  N7  A   B  76      -0.768  -3.489 -15.069  0.00  0.00    +0.000 NA
ATOM    924  C5  A   B  76       0.373  -3.984 -15.678  0.00  0.00    +0.000 A 
ATOM    925  C6  A   B  76       0.653  -5.203 -16.324  0.00  0.00    +0.000 A 
ATOM    926  N1  A   B  76       1.902  -5.376 -16.816  0.00  0.00    +0.000 NA
ATOM    927  C2  A   B  76       2.800  -4.391 -16.671  0.00  0.00    +0.000 A 
ATOM    928  N3  A   B  76       2.649  -3.206 -16.083  0.00  0.00    +0.000 NA
ATOM    929  C4  A   B  76       1.400  -3.066 -15.602  0.00  0.00    +0.000 A 
BRANCH 925 930
ATOM    930  N6  A   B  76      -0.245  -6.185 -16.470  0.00  0.00    +0.000 N 
ATOM    931  H   A   B  76       0.007  -7.018 -16.931  0.00  0.00    +0.000 HD
ATOM    932  H   A   B  76      -1.157  -6.075 -16.116  0.00  0.00    +0.000 HD
ENDBRANCH 925 930
ENDBRANCH 920 921
BRANCH 918 933
ATOM    933  O3' A   B  76       0.477   2.339 -16.213  0.00  0.00    +0.000 OA
ATOM    934  H   A   B  76       1.267   2.826 -15.932  0.00  0.00    +0.000 HD
ENDBRANCH 918 933
BRANCH 919 935
ATOM    935  O2' A   B  76       2.850   0.978 -15.732  0.00  0.00    +0.000 OA
ATOM    936  H   A   B  76       2.900   1.418 -14.869  0.00  0.00    +0.000 HD
ENDBRANCH 919 935
ENDBRANCH 915 916
ENDBRANCH 914 915
ENDBRANCH 910 914
ENDBRANCH 909 910
ENDBRANCH 894 909
ENDBRANCH 891 892
ENDBRANCH 890 891
ENDBRANCH 886 890
ENDBRANCH 885 886
ENDBRANCH 870 885
ENDBRANCH 867 868
ENDBRANCH 866 867
ENDBRANCH 862 866
ENDBRANCH 861 862
ENDBRANCH 847 861
ENDBRANCH 844 845
ENDBRANCH 843 844
ENDBRANCH 839 843
ENDBRANCH 838 839
ENDBRANCH 823 838
ENDBRANCH 820 821
ENDBRANCH 819 820
ENDBRANCH 815 819
ENDBRANCH 814 815
ENDBRANCH 800 814
ENDBRANCH 797 798
ENDBRANCH 796 797
ENDBRANCH 792 796
ENDBRANCH 791 792
ENDBRANCH 774 791
ENDBRANCH 771 772
ENDBRANCH 770 771
ENDBRANCH 766 770
ENDBRANCH 765 766
ENDBRANCH 748 765
ENDBRANCH 745 746
ENDBRANCH 744 745
ENDBRANCH 740 744
ENDBRANCH 739 740
ENDBRANCH 722 739
ENDBRANCH 719 720
ENDBRANCH 718 719
ENDBRANCH 714 718
ENDBRANCH 713 714
ENDBRANCH 696 713
ENDBRANCH 693 694
ENDBRANCH 692 693
ENDBRANCH 688 692
ENDBRANCH 687 688
ENDBRANCH 670 687
ENDBRANCH 667 668
ENDBRANCH 666 667
ENDBRANCH 662 666
ENDBRANCH 661 662
ENDBRANCH 646 661
ENDBRANCH 643 644
ENDBRANCH 642 643
ENDBRANCH 638 642
ENDBRANCH 637 638
ENDBRANCH 620 637
ENDBRANCH 617 618
ENDBRANCH 616 617
ENDBRANCH 612 616
ENDBRANCH 611 612
ENDBRANCH 597 611
ENDBRANCH 594 595
ENDBRANCH 593 594
ENDBRANCH 589 593
ENDBRANCH 588 589
ENDBRANCH 573 588
ENDBRANCH 570 571
ENDBRANCH 569 570
ENDBRANCH 565 569
ENDBRANCH 564 565
ENDBRANCH 547 564
ENDBRANCH 544 545
ENDBRANCH 543 544
ENDBRANCH 539 543
ENDBRANCH 538 539
ENDBRANCH 519 538
ENDBRANCH 516 517
ENDBRANCH 515 516
ENDBRANCH 511 515
ENDBRANCH 510 511
ENDBRANCH 493 510
ENDBRANCH 490 491
ENDBRANCH 489 490
ENDBRANCH 485 489
ENDBRANCH 484 485
ENDBRANCH 469 484
ENDBRANCH 466 467
ENDBRANCH 465 466
ENDBRANCH 461 465
ENDBRANCH 460 461
ENDBRANCH 443 460
ENDBRANCH 440 441
ENDBRANCH 439 440
ENDBRANCH 435 439
ENDBRANCH 434 435
ENDBRANCH 417 434
ENDBRANCH 414 415
ENDBRANCH 413 414
ENDBRANCH 409 413
ENDBRANCH 408 409
ENDBRANCH 391 408
ENDBRANCH 388 389
ENDBRANCH 387 388
ENDBRANCH 383 387
ENDBRANCH 382 383
ENDBRANCH 365 382
ENDBRANCH 362 363
ENDBRANCH 361 362
ENDBRANCH 357 361
ENDBRANCH 356 357
ENDBRANCH 339 356
ENDBRANCH 336 337
ENDBRANCH 335 336
ENDBRANCH 331 335
ENDBRANCH 330 331
ENDBRANCH 316 330
ENDBRANCH 313 314
ENDBRANCH 312 313
ENDBRANCH 308 312
ENDBRANCH 307 308
ENDBRANCH 293 307
ENDBRANCH 290 291
ENDBRANCH 289 290
ENDBRANCH 285 289
ENDBRANCH 284 285
ENDBRANCH 270 284
ENDBRANCH 267 268
ENDBRANCH 266 267
ENDBRANCH 262 266
ENDBRANCH 261 262
ENDBRANCH 247 261
ENDBRANCH 244 245
ENDBRANCH 243 244
ENDBRANCH 239 243
ENDBRANCH 238 239
ENDBRANCH 221 238
ENDBRANCH 218 219
ENDBRANCH 217 218
ENDBRANCH 213 217
ENDBRANCH 212 213
ENDBRANCH 198 212
ENDBRANCH 195 196
ENDBRANCH 194 195
ENDBRANCH 190 194
ENDBRANCH 189 190
ENDBRANCH 175 189
ENDBRANCH 172 173
ENDBRANCH 171 172
ENDBRANCH 167 171
ENDBRANCH 166 167
ENDBRANCH 152 166
ENDBRANCH 149 150
ENDBRANCH 148 149
ENDBRANCH 144 148
ENDBRANCH 143 144
ENDBRANCH 128 143
ENDBRANCH 125 126
ENDBRANCH 124 125
ENDBRANCH 120 124
ENDBRANCH 119 120
ENDBRANCH 102 119
ENDBRANCH  99 100
ENDBRANCH  98  99
ENDBRANCH  94  98
ENDBRANCH  93  94
ENDBRANCH  79  93
ENDBRANCH  76  77
ENDBRANCH  75  76
ENDBRANCH  71  75
ENDBRANCH  70  71
ENDBRANCH  56  70
ENDBRANCH  53  54
ENDBRANCH  52  53
ENDBRANCH  48  52
ENDBRANCH  47  48
ENDBRANCH  32  47
ENDBRANCH  29  30
ENDBRANCH  28  29
ENDBRANCH  24  28
ENDBRANCH  23  24
ENDBRANCH   9  23
ENDBRANCH   6   7
ENDBRANCH   5   6
ENDBRANCH   1   5
BRANCH   1 937
ATOM    937  O3' U   B  38     -10.197  17.882  25.602  0.00  0.00    +0.000 OA
BRANCH 937 940
ATOM    938  C4' U   B  38      -8.675  16.041  25.113  0.00  0.00    +0.000 C 
ATOM    939  O4' U   B  38      -7.231  15.924  25.058  0.00  0.00    +0.000 OA
ATOM    940  C3' U   B  38      -8.927  17.534  25.070  0.00  0.00    +0.000 C 
ATOM    941  C2' U   B  38      -7.761  18.090  25.879  0.00  0.00    +0.000 C 
ATOM    942  C1' U   B  38      -6.632  17.121  25.496  0.00  0.00    +0.000 C 
BRANCH 942 943
ATOM    943  N1  U   B  38      -5.777  17.648  24.411  0.00  0.00    +0.000 N 
ATOM    944  C2  U   B  38      -4.716  18.457  24.775  0.00  0.00    +0.000 A 
ATOM    945  O2  U   B  38      -4.470  18.750  25.933  0.00  0.00    +0.000 OA
ATOM    946  N3  U   B  38      -3.951  18.916  23.731  0.00  0.00    +0.000 N 
ATOM    947  C4  U   B  38      -4.134  18.652  22.387  0.00  0.00    +0.000 A 
ATOM    948  O4  U   B  38      -3.357  19.140  21.564  0.00  0.00    +0.000 OA
ATOM    949  C5  U   B  38      -5.251  17.808  22.092  0.00  0.00    +0.000 A 
ATOM    950  C6  U   B  38      -6.014  17.346  23.091  0.00  0.00    +0.000 A 
ATOM    951  H   U   B  38      -3.190  19.495  23.965  0.00  0.00    +0.000 HD
ENDBRANCH 942 943
BRANCH 941 952
ATOM    952  O2' U   B  38      -8.004  17.980  27.271  0.00  0.00    +0.000 OA
ATOM    953  H   U   B  38      -8.186  17.054  27.495  0.00  0.00    +0.000 HD
ENDBRANCH 941 952
BRANCH 938 954
ATOM    954  C5' U   B  38      -9.302  15.241  23.996  0.00  0.00    +0.000 C 
BRANCH 954 955
ATOM    955  O5' U   B  38      -8.926  15.742  22.725  0.00  0.00    +0.000 OA
BRANCH 955 956
ATOM    956  P   U   B  38      -9.279  14.945  21.389  0.00  0.00    +0.000 P 
ATOM    957  OP2 U   B  38      -8.672  15.665  20.241  0.00  0.00    +0.000 OA
BRANCH 956 958
ATOM    958  OP1 U   B  38     -10.735  14.650  21.397  0.00  0.00    +0.000 OA
ATOM    959  H   U   B  38     -10.971  14.164  20.591  0.00  0.00    +0.000 HD
ENDBRANCH 956 958
BRANCH 956 960
ATOM    960  O3' A   B  37      -8.516  13.559  21.569  0.00  0.00    +0.000 OA
BRANCH 960 963
ATOM    961  C4' A   B  37      -6.620  12.129  20.969  0.00  0.00    +0.000 C 
ATOM    962  O4' A   B  37      -5.213  12.137  21.321  0.00  0.00    +0.000 OA
ATOM    963  C3' A   B  37      -7.106  13.503  21.401  0.00  0.00    +0.000 C 
ATOM    964  C2' A   B  37      -6.335  13.720  22.697  0.00  0.00    +0.000 C 
ATOM    965  C1' A   B  37      -4.994  13.051  22.378  0.00  0.00    +0.000 C 
BRANCH 965 966
ATOM    966  N9  A   B  37      -3.961  14.024  21.975  0.00  0.00    +0.000 N 
ATOM    967  C8  A   B  37      -3.538  14.360  20.716  0.00  0.00    +0.000 A 
ATOM    968  N7  A   B  37      -2.589  15.267  20.699  0.00  0.00    +0.000 NA
ATOM    969  C5  A   B  37      -2.370  15.550  22.042  0.00  0.00    +0.000 A 
ATOM    970  C6  A   B  37      -1.490  16.427  22.701  0.00  0.00    +0.000 A 
ATOM    971  N1  A   B  37      -1.529  16.462  24.052  0.00  0.00    +0.000 NA
ATOM    972  C2  A   B  37      -2.398  15.665  24.690  0.00  0.00    +0.000 A 
ATOM    973  N3  A   B  37      -3.274  14.798  24.181  0.00  0.00    +0.000 NA
ATOM    974  C4  A   B  37      -3.207  14.790  22.837  0.00  0.00    +0.000 A 
BRANCH 970 975
ATOM    975  N6  A   B  37      -0.619  17.224  22.064  0.00  0.00    +0.000 N 
ATOM    976  H   A   B  37      -0.573  17.216  21.081  0.00  0.00    +0.000 HD
ATOM    977  H   A   B  37      -0.026  17.817  22.580  0.00  0.00    +0.000 HD
ENDBRANCH 970 975
ENDBRANCH 965 966
BRANCH 964 978
ATOM    978  O2' A   B  37      -6.942  13.028  23.776  0.00  0.00    +0.000 OA
ATOM    979  H   A   B  37      -7.014  12.086  23.557  0.00  0.00    +0.000 HD
ENDBRANCH 964 978
BRANCH 961 980
ATOM    980  C5' A   B  37      -6.799  11.786  19.509  0.00  0.00    +0.000 C 
BRANCH 980 981
ATOM    981  O5' A   B  37      -6.292  12.802  18.668  0.00  0.00    +0.000 OA
BRANCH 981 982
ATOM    982  P   A   B  37      -6.339  12.635  17.087  0.00  0.00    +0.000 P 
ATOM    983  OP2 A   B  37      -5.701  13.820  16.468  0.00  0.00    +0.000 OA
BRANCH 982 984
ATOM    984  OP1 A   B  37      -7.720  12.250  16.707  0.00  0.00    +0.000 OA
ATOM    985  H   A   B  37      -7.772  12.142  15.744  0.00  0.00    +0.000 HD
ENDBRANCH 982 984
BRANCH 982 986
ATOM    986  O3' U   B  36      -5.391  11.376  16.815  0.00  0.00    +0.000 OA
BRANCH 986 989
ATOM    987  C4' U   B  36      -3.196  10.613  16.039  0.00  0.00    +0.000 C 
ATOM    988  O4' U   B  36      -1.898  10.492  16.679  0.00  0.00    +0.000 OA
ATOM    989  C3' U   B  36      -3.989  11.500  16.982  0.00  0.00    +0.000 C 
ATOM    990  C2' U   B  36      -3.497  11.038  18.349  0.00  0.00    +0.000 C 
ATOM    991  C1' U   B  36      -2.015  10.778  18.057  0.00  0.00    +0.000 C 
BRANCH 991 992
ATOM    992  N1  U   B  36      -1.173  11.954  18.374  0.00  0.00    +0.000 N 
ATOM    993  C2  U   B  36      -0.832  12.158  19.701  0.00  0.00    +0.000 A 
ATOM    994  O2  U   B  36      -1.200  11.422  20.598  0.00  0.00    +0.000 OA
ATOM    995  N3  U   B  36      -0.047  13.261  19.941  0.00  0.00    +0.000 N 
ATOM    996  C4  U   B  36       0.423  14.164  19.008  0.00  0.00    +0.000 A 
ATOM    997  O4  U   B  36       1.126  15.111  19.380  0.00  0.00    +0.000 OA
ATOM    998  C5  U   B  36       0.031  13.890  17.659  0.00  0.00    +0.000 A 
ATOM    999  C6  U   B  36      -0.735  12.820  17.396  0.00  0.00    +0.000 A 
ATOM   1000  H   U   B  36       0.207  13.424  20.878  0.00  0.00    +0.000 HD
ENDBRANCH 991 992
BRANCH 9901001
ATOM   1001  O2' U   B  36      -4.107   9.823  18.731  0.00  0.00    +0.000 OA
ATOM   1002  H   U   B  36      -3.949   9.153  18.047  0.00  0.00    +0.000 HD
ENDBRANCH 9901001
BRANCH 9871003
ATOM   1003  C5' U   B  36      -3.032  11.130  14.631  0.00  0.00    +0.000 C 
BRANCH10031004
ATOM   1004  O5' U   B  36      -2.433  12.410  14.617  0.00  0.00    +0.000 OA
BRANCH10041005
ATOM   1005  P   U   B  36      -1.980  13.089  13.249  0.00  0.00    +0.000 P 
ATOM   1006  OP1 U   B  36      -3.106  12.984  12.290  0.00  0.00    +0.000 OA
BRANCH10051007
ATOM   1007  OP2 U   B  36      -1.390  14.416  13.557  0.00  0.00    +0.000 OA
ATOM   1008  H   U   B  36      -1.108  14.844  12.733  0.00  0.00    +0.000 HD
ENDBRANCH10051007
BRANCH10051009
ATOM   1009  O3' A   B  35      -0.825  12.140  12.729  0.00  0.00    +0.000 OA
BRANCH10091012
ATOM   1010  C4' A   B  35       1.597  11.776  12.610  0.00  0.00    +0.000 C 
ATOM   1011  O4' A   B  35       2.549  11.150  13.506  0.00  0.00    +0.000 OA
ATOM   1012  C3' A   B  35       0.368  11.991  13.479  0.00  0.00    +0.000 C 
ATOM   1013  C2' A   B  35       0.378  10.745  14.357  0.00  0.00    +0.000 C 
ATOM   1014  C1' A   B  35       1.872  10.560  14.599  0.00  0.00    +0.000 C 
BRANCH10141015
ATOM   1015  N9  A   B  35       2.312  11.224  15.841  0.00  0.00    +0.000 N 
ATOM   1016  C8  A   B  35       2.991  12.410  15.981  0.00  0.00    +0.000 A 
ATOM   1017  N7  A   B  35       3.240  12.733  17.230  0.00  0.00    +0.000 NA
ATOM   1018  C5  A   B  35       2.687  11.697  17.965  0.00  0.00    +0.000 A 
ATOM   1019  C6  A   B  35       2.611  11.442  19.345  0.00  0.00    +0.000 A 
ATOM   1020  N6  A   B  35       3.121  12.257  20.278  0.00  0.00    +0.000 N 
ATOM   1021  N1  A   B  35       1.986  10.311  19.742  0.00  0.00    +0.000 NA
ATOM   1022  C2  A   B  35       1.474   9.498  18.812  0.00  0.00    +0.000 A 
ATOM   1023  N3  A   B  35       1.483   9.626  17.484  0.00  0.00    +0.000 NA
ATOM   1024  C4  A   B  35       2.111  10.761  17.124  0.00  0.00    +0.000 A 
ATOM   1025  H   A   B  35       3.580  13.086  20.010  0.00  0.00    +0.000 HD
ATOM   1026  H   A   B  35       3.037  12.027  21.232  0.00  0.00    +0.000 HD
ENDBRANCH10141015
BRANCH10131027
ATOM   1027  O2' A   B  35      -0.113   9.621  13.657  0.00  0.00    +0.000 OA
ATOM   1028  H   A   B  35       0.405   9.493  12.847  0.00  0.00    +0.000 HD
ENDBRANCH10131027
BRANCH10101029
ATOM   1029  C5' A   B  35       2.206  13.019  12.002  0.00  0.00    +0.000 C 
BRANCH10291030
ATOM   1030  O5' A   B  35       2.695  13.894  13.002  0.00  0.00    +0.000 OA
BRANCH10301031
ATOM   1031  P   A   B  35       3.840  14.949  12.668  0.00  0.00    +0.000 P 
ATOM   1032  OP1 A   B  35       3.439  15.695  11.448  0.00  0.00    +0.000 OA
BRANCH10311033
ATOM   1033  OP2 A   B  35       4.163  15.696  13.912  0.00  0.00    +0.000 OA
ATOM   1034  H   A   B  35       4.860  16.345  13.728  0.00  0.00    +0.000 HD
ENDBRANCH10311033
BRANCH10311035
ATOM   1035  O3' A   B  34       5.080  14.024  12.292  0.00  0.00    +0.000 OA
BRANCH10351038
ATOM   1036  C4' A   B  34       7.332  13.306  12.946  0.00  0.00    +0.000 C 
ATOM   1037  O4' A   B  34       7.828  12.265  13.827  0.00  0.00    +0.000 OA
ATOM   1038  C3' A   B  34       5.862  13.422  13.313  0.00  0.00    +0.000 C 
ATOM   1039  C2' A   B  34       5.488  11.968  13.588  0.00  0.00    +0.000 C 
ATOM   1040  C1' A   B  34       6.759  11.451  14.264  0.00  0.00    +0.000 C 
BRANCH10401041
ATOM   1041  N9  A   B  34       6.676  11.525  15.734  0.00  0.00    +0.000 N 
ATOM   1042  C8  A   B  34       7.195  12.485  16.569  0.00  0.00    +0.000 A 
ATOM   1043  N7  A   B  34       6.955  12.264  17.841  0.00  0.00    +0.000 NA
ATOM   1044  C5  A   B  34       6.225  11.083  17.847  0.00  0.00    +0.000 A 
ATOM   1045  C6  A   B  34       5.666  10.315  18.885  0.00  0.00    +0.000 A 
ATOM   1046  N6  A   B  34       5.758  10.641  20.181  0.00  0.00    +0.000 N 
ATOM   1047  N1  A   B  34       5.000   9.191  18.545  0.00  0.00    +0.000 NA
ATOM   1048  C2  A   B  34       4.905   8.863  17.251  0.00  0.00    +0.000 A 
ATOM   1049  N3  A   B  34       5.390   9.501  16.182  0.00  0.00    +0.000 NA
ATOM   1050  C4  A   B  34       6.046  10.616  16.556  0.00  0.00    +0.000 A 
ATOM   1051  H   A   B  34       6.239  11.456  20.450  0.00  0.00    +0.000 HD
ATOM   1052  H   A   B  34       5.344  10.065  20.864  0.00  0.00    +0.000 HD
ENDBRANCH10401041
BRANCH10391053
ATOM   1053  O2' A   B  34       5.287  11.253  12.385  0.00  0.00    +0.000 OA
ATOM   1054  H   A   B  34       6.082  11.319  11.833  0.00  0.00    +0.000 HD
ENDBRANCH10391053
BRANCH10361055
ATOM   1055  C5' A   B  34       8.155  14.564  13.114  0.00  0.00    +0.000 C 
BRANCH10551056
ATOM   1056  O5' A   B  34       8.053  15.080  14.431  0.00  0.00    +0.000 OA
BRANCH10561057
ATOM   1057  P   A   B  34       9.121  16.122  14.979  0.00  0.00    +0.000 P 
ATOM   1058  OP1 A   B  34       9.217  17.244  14.005  0.00  0.00    +0.000 OA
BRANCH10571059
ATOM   1059  OP2 A   B  34       8.814  16.410  16.402  0.00  0.00    +0.000 OA
ATOM   1060  H   A   B  34       7.986  16.911  16.459  0.00  0.00    +0.000 HD
ENDBRANCH10571059
BRANCH10571061
ATOM   1061  O3' U   B  33      10.486  15.298  14.915  0.00  0.00    +0.000 OA
BRANCH10611064
ATOM   1062  C4' U   B  33      12.306  14.394  16.278  0.00  0.00    +0.000 C 
ATOM   1063  O4' U   B  33      12.518  13.122  16.947  0.00  0.00    +0.000 OA
ATOM   1064  C3' U   B  33      10.824  14.391  15.954  0.00  0.00    +0.000 C 
ATOM   1065  C2' U   B  33      10.571  12.928  15.599  0.00  0.00    +0.000 C 
ATOM   1066  C1' U   B  33      11.490  12.217  16.598  0.00  0.00    +0.000 C 
BRANCH10661067
ATOM   1067  N1  U   B  33      10.771  11.816  17.831  0.00  0.00    +0.000 N 
ATOM   1068  C2  U   B  33      10.037  10.641  17.794  0.00  0.00    +0.000 A 
ATOM   1069  O2  U   B  33       9.960   9.940  16.800  0.00  0.00    +0.000 OA
ATOM   1070  N3  U   B  33       9.394  10.317  18.966  0.00  0.00    +0.000 N 
ATOM   1071  C4  U   B  33       9.413  11.033  20.144  0.00  0.00    +0.000 A 
ATOM   1072  O4  U   B  33       8.782  10.611  21.120  0.00  0.00    +0.000 OA
ATOM   1073  C5  U   B  33      10.191  12.235  20.104  0.00  0.00    +0.000 A 
ATOM   1074  C6  U   B  33      10.827  12.574  18.974  0.00  0.00    +0.000 A 
ATOM   1075  H   U   B  33       8.865   9.487  18.963  0.00  0.00    +0.000 HD
ENDBRANCH10661067
BRANCH10651076
ATOM   1076  O2' U   B  33      11.007  12.632  14.288  0.00  0.00    +0.000 OA
ATOM   1077  H   U   B  33      11.945  12.864  14.199  0.00  0.00    +0.000 HD
ENDBRANCH10651076
BRANCH10621078
ATOM   1078  C5' U   B  33      12.778  15.528  17.154  0.00  0.00    +0.000 C 
BRANCH10781079
ATOM   1079  O5' U   B  33      11.965  15.678  18.308  0.00  0.00    +0.000 OA
BRANCH10791080
ATOM   1080  P   U   B  33      12.495  16.460  19.588  0.00  0.00    +0.000 P 
ATOM   1081  OP1 U   B  33      12.814  17.855  19.183  0.00  0.00    +0.000 OA
BRANCH10801082
ATOM   1082  OP2 U   B  33      11.559  16.217  20.713  0.00  0.00    +0.000 OA
ATOM   1083  H   U   B  33      10.719  16.670  20.538  0.00  0.00    +0.000 HD
ENDBRANCH10801082
BRANCH10801084
ATOM   1084  O3' A   B  32      13.856  15.711  19.898  0.00  0.00    +0.000 OA
BRANCH10841087
ATOM   1085  C4' A   B  32      14.762  14.592  21.875  0.00  0.00    +0.000 C 
ATOM   1086  O4' A   B  32      15.062  13.208  22.191  0.00  0.00    +0.000 OA
ATOM   1087  C3' A   B  32      13.856  14.504  20.655  0.00  0.00    +0.000 C 
ATOM   1088  C2' A   B  32      14.418  13.303  19.907  0.00  0.00    +0.000 C 
ATOM   1089  C1' A   B  32      14.821  12.387  21.070  0.00  0.00    +0.000 C 
BRANCH10891090
ATOM   1090  N9  A   B  32      13.763  11.426  21.428  0.00  0.00    +0.000 N 
ATOM   1091  C8  A   B  32      13.052  11.376  22.604  0.00  0.00    +0.000 A 
ATOM   1092  N7  A   B  32      12.172  10.404  22.648  0.00  0.00    +0.000 NA
ATOM   1093  C5  A   B  32      12.311   9.767  21.423  0.00  0.00    +0.000 A 
ATOM   1094  C6  A   B  32      11.664   8.658  20.851  0.00  0.00    +0.000 A 
ATOM   1095  N6  A   B  32      10.700   7.964  21.474  0.00  0.00    +0.000 N 
ATOM   1096  N1  A   B  32      12.037   8.281  19.605  0.00  0.00    +0.000 NA
ATOM   1097  C2  A   B  32      12.998   8.975  18.982  0.00  0.00    +0.000 A 
ATOM   1098  N3  A   B  32      13.682  10.034  19.418  0.00  0.00    +0.000 NA
ATOM   1099  C4  A   B  32      13.286  10.383  20.660  0.00  0.00    +0.000 A 
ATOM   1100  H   A   B  32      10.280   7.194  21.026  0.00  0.00    +0.000 HD
ATOM   1101  H   A   B  32      10.413   8.224  22.379  0.00  0.00    +0.000 HD
ENDBRANCH10891090
BRANCH10881102
ATOM   1102  O2' A   B  32      15.578  13.652  19.176  0.00  0.00    +0.000 OA
ATOM   1103  H   A   B  32      16.233  14.041  19.776  0.00  0.00    +0.000 HD
ENDBRANCH10881102
BRANCH10851104
ATOM   1104  C5' A   B  32      14.153  15.276  23.073  0.00  0.00    +0.000 C 
BRANCH11041105
ATOM   1105  O5' A   B  32      14.866  14.973  24.251  0.00  0.00    +0.000 OA
BRANCH11051106
ATOM   1106  P   A   B  32      14.102  14.743  25.626  0.00  0.00    +0.000 P 
ATOM   1107  OP2 A   B  32      12.946  13.848  25.368  0.00  0.00    +0.000 OA
BRANCH11061108
ATOM   1108  OP1 A   B  32      13.873  16.065  26.260  0.00  0.00    +0.000 OA
ATOM   1109  H   A   B  32      13.212  16.558  25.750  0.00  0.00    +0.000 HD
ENDBRANCH11061108
BRANCH11061110
ATOM   1110  O3' A   B  31      15.189  13.963  26.486  0.00  0.00    +0.000 OA
BRANCH11101113
ATOM   1111  C4' A   B  31      16.125  11.966  27.536  0.00  0.00    +0.000 C 
ATOM   1112  O4' A   B  31      16.503  10.655  27.042  0.00  0.00    +0.000 OA
ATOM   1113  C3' A   B  31      15.263  12.543  26.430  0.00  0.00    +0.000 C 
ATOM   1114  C2' A   B  31      15.937  12.008  25.175  0.00  0.00    +0.000 C 
ATOM   1115  C1' A   B  31      16.379  10.615  25.633  0.00  0.00    +0.000 C 
BRANCH11151116
ATOM   1116  N9  A   B  31      15.399   9.567  25.281  0.00  0.00    +0.000 N 
ATOM   1117  C8  A   B  31      14.393   9.061  26.063  0.00  0.00    +0.000 A 
ATOM   1118  N7  A   B  31      13.685   8.127  25.467  0.00  0.00    +0.000 NA
ATOM   1119  C5  A   B  31      14.262   8.007  24.213  0.00  0.00    +0.000 A 
ATOM   1120  C6  A   B  31      13.977   7.188  23.109  0.00  0.00    +0.000 A 
ATOM   1121  N1  A   B  31      14.748   7.324  22.010  0.00  0.00    +0.000 NA
ATOM   1122  C2  A   B  31      15.739   8.222  22.022  0.00  0.00    +0.000 A 
ATOM   1123  N3  A   B  31      16.110   9.048  23.003  0.00  0.00    +0.000 NA
ATOM   1124  C4  A   B  31      15.320   8.889  24.084  0.00  0.00    +0.000 A 
BRANCH11201125
ATOM   1125  N6  A   B  31      12.983   6.291  23.091  0.00  0.00    +0.000 N 
ATOM   1126  H   A   B  31      12.829   5.743  22.288  0.00  0.00    +0.000 HD
ATOM   1127  H   A   B  31      12.406   6.180  23.881  0.00  0.00    +0.000 HD
ENDBRANCH11201125
ENDBRANCH11151116
BRANCH11141128
ATOM   1128  O2' A   B  31      17.088  12.769  24.846  0.00  0.00    +0.000 OA
ATOM   1129  H   A   B  31      17.696  12.779  25.602  0.00  0.00    +0.000 HD
ENDBRANCH11141128
BRANCH11111130
ATOM   1130  C5' A   B  31      15.452  11.836  28.882  0.00  0.00    +0.000 C 
BRANCH11301131
ATOM   1131  O5' A   B  31      14.227  11.136  28.780  0.00  0.00    +0.000 OA
BRANCH11311132
ATOM   1132  P   A   B  31      13.478  10.603  30.085  0.00  0.00    +0.000 P 
ATOM   1133  OP2 A   B  31      12.363   9.726  29.656  0.00  0.00    +0.000 OA
BRANCH11321134
ATOM   1134  OP1 A   B  31      13.204  11.767  30.967  0.00  0.00    +0.000 OA
ATOM   1135  H   A   B  31      12.525  12.328  30.560  0.00  0.00    +0.000 HD
ENDBRANCH11321134
BRANCH11321136
ATOM   1136  O3' A   B  30      14.590   9.717  30.789  0.00  0.00    +0.000 OA
BRANCH11361139
ATOM   1137  C4' A   B  30      15.372   7.478  31.401  0.00  0.00    +0.000 C 
ATOM   1138  O4' A   B  30      16.051   6.420  30.670  0.00  0.00    +0.000 OA
ATOM   1139  C3' A   B  30      14.864   8.406  30.311  0.00  0.00    +0.000 C 
ATOM   1140  C2' A   B  30      15.988   8.348  29.288  0.00  0.00    +0.000 C 
ATOM   1141  C1' A   B  30      16.410   6.880  29.383  0.00  0.00    +0.000 C 
BRANCH11411142
ATOM   1142  N9  A   B  30      15.730   6.040  28.379  0.00  0.00    +0.000 N 
ATOM   1143  C8  A   B  30      14.603   5.272  28.542  0.00  0.00    +0.000 A 
ATOM   1144  N7  A   B  30      14.243   4.635  27.450  0.00  0.00    +0.000 NA
ATOM   1145  C5  A   B  30      15.193   5.004  26.509  0.00  0.00    +0.000 A 
ATOM   1146  C6  A   B  30      15.376   4.669  25.158  0.00  0.00    +0.000 A 
ATOM   1147  N1  A   B  30      16.427   5.215  24.509  0.00  0.00    +0.000 NA
ATOM   1148  C2  A   B  30      17.238   6.040  25.176  0.00  0.00    +0.000 A 
ATOM   1149  N3  A   B  30      17.174   6.431  26.452  0.00  0.00    +0.000 NA
ATOM   1150  C4  A   B  30      16.115   5.871  27.069  0.00  0.00    +0.000 A 
BRANCH11461151
ATOM   1151  N6  A   B  30      14.562   3.847  24.485  0.00  0.00    +0.000 N 
ATOM   1152  H   A   B  30      14.738   3.647  23.537  0.00  0.00    +0.000 HD
ATOM   1153  H   A   B  30      13.787   3.443  24.938  0.00  0.00    +0.000 HD
ENDBRANCH11461151
ENDBRANCH11411142
BRANCH11401154
ATOM   1154  O2' A   B  30      17.081   9.162  29.682  0.00  0.00    +0.000 OA
ATOM   1155  H   A   B  30      17.383   8.893  30.564  0.00  0.00    +0.000 HD
ENDBRANCH11401154
BRANCH11371156
ATOM   1156  C5' A   B  30      14.316   6.882  32.304  0.00  0.00    +0.000 C 
BRANCH11561157
ATOM   1157  O5' A   B  30      13.316   6.211  31.558  0.00  0.00    +0.000 OA
BRANCH11571158
ATOM   1158  P   A   B  30      12.306   5.201  32.273  0.00  0.00    +0.000 P 
ATOM   1159  OP2 A   B  30      11.496   4.533  31.224  0.00  0.00    +0.000 OA
BRANCH11581160
ATOM   1160  OP1 A   B  30      11.626   5.928  33.373  0.00  0.00    +0.000 OA
ATOM   1161  H   A   B  30      11.022   6.589  32.999  0.00  0.00    +0.000 HD
ENDBRANCH11581160
BRANCH11581162
ATOM   1162  O3' A   B  29      13.282   4.133  32.916  0.00  0.00    +0.000 OA
BRANCH11621165
ATOM   1163  C4' A   B  29      14.089   1.820  32.909  0.00  0.00    +0.000 C 
ATOM   1164  O4' A   B  29      15.064   1.104  32.104  0.00  0.00    +0.000 OA
ATOM   1165  C3' A   B  29      13.835   3.092  32.120  0.00  0.00    +0.000 C 
ATOM   1166  C2' A   B  29      15.217   3.412  31.571  0.00  0.00    +0.000 C 
ATOM   1167  C1' A   B  29      15.751   2.011  31.265  0.00  0.00    +0.000 C 
BRANCH11671168
ATOM   1168  N9  A   B  29      15.519   1.622  29.863  0.00  0.00    +0.000 N 
ATOM   1169  C8  A   B  29      14.506   0.852  29.351  0.00  0.00    +0.000 A 
ATOM   1170  N7  A   B  29      14.582   0.684  28.050  0.00  0.00    +0.000 NA
ATOM   1171  C5  A   B  29      15.718   1.389  27.681  0.00  0.00    +0.000 A 
ATOM   1172  C6  A   B  29      16.348   1.602  26.446  0.00  0.00    +0.000 A 
ATOM   1173  N1  A   B  29      17.467   2.354  26.427  0.00  0.00    +0.000 NA
ATOM   1174  C2  A   B  29      17.920   2.858  27.580  0.00  0.00    +0.000 A 
ATOM   1175  N3  A   B  29      17.420   2.725  28.811  0.00  0.00    +0.000 NA
ATOM   1176  C4  A   B  29      16.305   1.973  28.791  0.00  0.00    +0.000 A 
BRANCH11721177
ATOM   1177  N6  A   B  29      15.894   1.104  25.289  0.00  0.00    +0.000 N 
ATOM   1178  H   A   B  29      16.378   1.286  24.451  0.00  0.00    +0.000 HD
ATOM   1179  H   A   B  29      15.076   0.556  25.276  0.00  0.00    +0.000 HD
ENDBRANCH11721177
ENDBRANCH11671168
BRANCH11661180
ATOM   1180  O2' A   B  29      16.040   4.008  32.561  0.00  0.00    +0.000 OA
ATOM   1181  H   A   B  29      16.089   3.425  33.335  0.00  0.00    +0.000 HD
ENDBRANCH11661180
BRANCH11631182
ATOM   1182  C5' A   B  29      12.883   0.944  33.155  0.00  0.00    +0.000 C 
BRANCH11821183
ATOM   1183  O5' A   B  29      12.182   0.670  31.951  0.00  0.00    +0.000 OA
BRANCH11831184
ATOM   1184  P   A   B  29      11.093  -0.490  31.892  0.00  0.00    +0.000 P 
ATOM   1185  OP2 A   B  29      10.642  -0.636  30.487  0.00  0.00    +0.000 OA
BRANCH11841186
ATOM   1186  OP1 A   B  29      10.094  -0.244  32.960  0.00  0.00    +0.000 OA
ATOM   1187  H   A   B  29       9.563   0.536  32.733  0.00  0.00    +0.000 HD
ENDBRANCH11841186
BRANCH11841188
ATOM   1188  O3' U   B  28      11.949  -1.768  32.283  0.00  0.00    +0.000 OA
BRANCH11881191
ATOM   1189  C4' U   B  28      12.754  -3.933  31.481  0.00  0.00    +0.000 C 
ATOM   1190  O4' U   B  28      13.935  -4.351  30.745  0.00  0.00    +0.000 OA
ATOM   1191  C3' U   B  28      12.731  -2.427  31.299  0.00  0.00    +0.000 C 
ATOM   1192  C2' U   B  28      14.208  -2.070  31.350  0.00  0.00    +0.000 C 
ATOM   1193  C1' U   B  28      14.828  -3.262  30.611  0.00  0.00    +0.000 C 
BRANCH11931194
ATOM   1194  N1  U   B  28      15.023  -2.989  29.168  0.00  0.00    +0.000 N 
ATOM   1195  C2  U   B  28      16.169  -2.307  28.799  0.00  0.00    +0.000 A 
ATOM   1196  O2  U   B  28      17.007  -1.935  29.603  0.00  0.00    +0.000 OA
ATOM   1197  N3  U   B  28      16.304  -2.080  27.450  0.00  0.00    +0.000 N 
ATOM   1198  C4  U   B  28      15.426  -2.456  26.459  0.00  0.00    +0.000 A 
ATOM   1199  O4  U   B  28      15.683  -2.177  25.285  0.00  0.00    +0.000 OA
ATOM   1200  C5  U   B  28      14.261  -3.153  26.922  0.00  0.00    +0.000 A 
ATOM   1201  C6  U   B  28      14.104  -3.390  28.228  0.00  0.00    +0.000 A 
ATOM   1202  H   U   B  28      17.113  -1.598  27.163  0.00  0.00    +0.000 HD
ENDBRANCH11931194
BRANCH11921203
ATOM   1203  O2' U   B  28      14.694  -2.061  32.679  0.00  0.00    +0.000 OA
ATOM   1204  H   U   B  28      14.521  -2.921  33.092  0.00  0.00    +0.000 HD
ENDBRANCH11921203
BRANCH11891205
ATOM   1205  C5' U   B  28      11.543  -4.671  30.970  0.00  0.00    +0.000 C 
BRANCH12051206
ATOM   1206  O5' U   B  28      11.141  -4.203  29.690  0.00  0.00    +0.000 OA
BRANCH12061207
ATOM   1207  P   U   B  28      10.222  -5.086  28.750  0.00  0.00    +0.000 P 
ATOM   1208  OP2 U   B  28      10.160  -4.450  27.416  0.00  0.00    +0.000 OA
BRANCH12071209
ATOM   1209  OP1 U   B  28       8.966  -5.394  29.478  0.00  0.00    +0.000 OA
ATOM   1210  H   U   B  28       8.391  -5.935  28.915  0.00  0.00    +0.000 HD
ENDBRANCH12071209
BRANCH12071211
ATOM   1211  O3' U   B  27      11.068  -6.433  28.635  0.00  0.00    +0.000 OA
BRANCH12111214
ATOM   1212  C4' U   B  27      11.603  -7.561  26.549  0.00  0.00    +0.000 C 
ATOM   1213  O4' U   B  27      12.839  -7.996  25.934  0.00  0.00    +0.000 OA
ATOM   1214  C3' U   B  27      12.044  -6.576  27.615  0.00  0.00    +0.000 C 
ATOM   1215  C2' U   B  27      13.358  -7.162  28.103  0.00  0.00    +0.000 C 
ATOM   1216  C1' U   B  27      13.928  -7.728  26.795  0.00  0.00    +0.000 C 
BRANCH12161217
ATOM   1217  N1  U   B  27      14.829  -6.775  26.103  0.00  0.00    +0.000 N 
ATOM   1218  C2  U   B  27      16.034  -6.449  26.703  0.00  0.00    +0.000 A 
ATOM   1219  O2  U   B  27      16.392  -6.897  27.778  0.00  0.00    +0.000 OA
ATOM   1220  N3  U   B  27      16.815  -5.566  25.998  0.00  0.00    +0.000 N 
ATOM   1221  C4  U   B  27      16.522  -4.996  24.779  0.00  0.00    +0.000 A 
ATOM   1222  O4  U   B  27      17.324  -4.222  24.264  0.00  0.00    +0.000 OA
ATOM   1223  C5  U   B  27      15.261  -5.384  24.220  0.00  0.00    +0.000 A 
ATOM   1224  C6  U   B  27      14.480  -6.240  24.884  0.00  0.00    +0.000 A 
ATOM   1225  H   U   B  27      17.674  -5.314  26.407  0.00  0.00    +0.000 HD
ENDBRANCH12161217
BRANCH12151226
ATOM   1226  O2' U   B  27      13.148  -8.230  29.001  0.00  0.00    +0.000 OA
ATOM   1227  H   U   B  27      12.592  -8.903  28.578  0.00  0.00    +0.000 HD
ENDBRANCH12151226
BRANCH12121228
ATOM   1228  C5' U   B  27      10.684  -6.993  25.495  0.00  0.00    +0.000 C 
BRANCH12281229
ATOM   1229  O5' U   B  27      10.385  -7.973  24.508  0.00  0.00    +0.000 OA
BRANCH12291230
ATOM   1230  P   U   B  27      10.385  -7.584  22.967  0.00  0.00    +0.000 P 
ATOM   1231  OP1 U   B  27       8.973  -7.418  22.532  0.00  0.00    +0.000 OA
BRANCH12301232
ATOM   1232  OP2 U   B  27      11.344  -6.472  22.767  0.00  0.00    +0.000 OA
ATOM   1233  H   U   B  27      11.357  -6.221  21.830  0.00  0.00    +0.000 HD
ENDBRANCH12301232
BRANCH12301234
ATOM   1234  O3' U   B  26      10.983  -8.891  22.288  0.00  0.00    +0.000 OA
BRANCH12341237
ATOM   1235  C4' U   B  26      12.565  -9.905  20.741  0.00  0.00    +0.000 C 
ATOM   1236  O4' U   B  26      13.986 -10.198  20.806  0.00  0.00    +0.000 OA
ATOM   1237  C3' U   B  26      12.340  -8.933  21.880  0.00  0.00    +0.000 C 
ATOM   1238  C2' U   B  26      13.288  -9.448  22.952  0.00  0.00    +0.000 C 
ATOM   1239  C1' U   B  26      14.477  -9.921  22.104  0.00  0.00    +0.000 C 
BRANCH12391240
ATOM   1240  N1  U   B  26      15.540  -8.897  21.995  0.00  0.00    +0.000 N 
ATOM   1241  C2  U   B  26      16.452  -8.806  23.031  0.00  0.00    +0.000 A 
ATOM   1242  O2  U   B  26      16.415  -9.523  24.012  0.00  0.00    +0.000 OA
ATOM   1243  N3  U   B  26      17.418  -7.841  22.876  0.00  0.00    +0.000 N 
ATOM   1244  C4  U   B  26      17.560  -6.976  21.813  0.00  0.00    +0.000 A 
ATOM   1245  O4  U   B  26      18.482  -6.157  21.813  0.00  0.00    +0.000 OA
ATOM   1246  C5  U   B  26      16.579  -7.129  20.785  0.00  0.00    +0.000 A 
ATOM   1247  C6  U   B  26      15.628  -8.061  20.908  0.00  0.00    +0.000 A 
ATOM   1248  H   U   B  26      18.079  -7.759  23.601  0.00  0.00    +0.000 HD
ENDBRANCH12391240
BRANCH12381249
ATOM   1249  O2' U   B  26      12.741 -10.569  23.628  0.00  0.00    +0.000 OA
ATOM   1250  H   U   B  26      12.521 -11.260  22.983  0.00  0.00    +0.000 HD
ENDBRANCH12381249
BRANCH12351251
ATOM   1251  C5' U   B  26      12.206  -9.394  19.367  0.00  0.00    +0.000 C 
BRANCH12511252
ATOM   1252  O5' U   B  26      12.773  -8.127  19.122  0.00  0.00    +0.000 OA
BRANCH12521253
ATOM   1253  P   U   B  26      12.716  -7.470  17.673  0.00  0.00    +0.000 P 
ATOM   1254  OP1 U   B  26      11.293  -7.361  17.269  0.00  0.00    +0.000 OA
BRANCH12531255
ATOM   1255  OP2 U   B  26      13.581  -6.265  17.676  0.00  0.00    +0.000 OA
ATOM   1256  H   U   B  26      13.560  -5.849  16.800  0.00  0.00    +0.000 HD
ENDBRANCH12531255
BRANCH12531257
ATOM   1257  O3' U   B  25      13.400  -8.584  16.757  0.00  0.00    +0.000 OA
BRANCH12571260
ATOM   1258  C4' U   B  25      15.356  -9.220  15.435  0.00  0.00    +0.000 C 
ATOM   1259  O4' U   B  25      16.647  -9.802  15.768  0.00  0.00    +0.000 OA
ATOM   1260  C3' U   B  25      14.811  -8.749  16.770  0.00  0.00    +0.000 C 
ATOM   1261  C2' U   B  25      15.287  -9.836  17.722  0.00  0.00    +0.000 C 
ATOM   1262  C1' U   B  25      16.671 -10.162  17.136  0.00  0.00    +0.000 C 
BRANCH12621263
ATOM   1263  N1  U   B  25      17.753  -9.404  17.801  0.00  0.00    +0.000 N 
ATOM   1264  C2  U   B  25      18.213  -9.882  19.015  0.00  0.00    +0.000 A 
ATOM   1265  O2  U   B  25      17.769 -10.881  19.546  0.00  0.00    +0.000 OA
ATOM   1266  N3  U   B  25      19.221  -9.142  19.587  0.00  0.00    +0.000 N 
ATOM   1267  C4  U   B  25      19.799  -8.000  19.080  0.00  0.00    +0.000 A 
ATOM   1268  O4  U   B  25      20.699  -7.444  19.712  0.00  0.00    +0.000 OA
ATOM   1269  C5  U   B  25      19.270  -7.569  17.824  0.00  0.00    +0.000 A 
ATOM   1270  C6  U   B  25      18.289  -8.270  17.244  0.00  0.00    +0.000 A 
ATOM   1271  H   U   B  25      19.566  -9.463  20.451  0.00  0.00    +0.000 HD
ENDBRANCH12621263
BRANCH12611272
ATOM   1272  O2' U   B  25      14.476 -10.992  17.630  0.00  0.00    +0.000 OA
ATOM   1273  H   U   B  25      14.459 -11.302  16.711  0.00  0.00    +0.000 HD
ENDBRANCH12611272
BRANCH12581274
ATOM   1274  C5' U   B  25      15.532  -8.151  14.381  0.00  0.00    +0.000 C 
BRANCH12741275
ATOM   1275  O5' U   B  25      16.281  -7.058  14.873  0.00  0.00    +0.000 OA
BRANCH12751276
ATOM   1276  P   U   B  25      16.755  -5.887  13.895  0.00  0.00    +0.000 P 
ATOM   1277  OP1 U   B  25      15.560  -5.366  13.183  0.00  0.00    +0.000 OA
BRANCH12761278
ATOM   1278  OP2 U   B  25      17.619  -4.961  14.669  0.00  0.00    +0.000 OA
ATOM   1279  H   U   B  25      17.919  -4.241  14.093  0.00  0.00    +0.000 HD
ENDBRANCH12761278
BRANCH12761280
ATOM   1280  O3' U   B  24      17.662  -6.657  12.827  0.00  0.00    +0.000 OA
BRANCH12801283
ATOM   1281  C4' U   B  24      19.947  -7.077  12.061  0.00  0.00    +0.000 C 
ATOM   1282  O4' U   B  24      20.978  -8.027  12.453  0.00  0.00    +0.000 OA
ATOM   1283  C3' U   B  24      18.947  -7.132  13.199  0.00  0.00    +0.000 C 
ATOM   1284  C2' U   B  24      18.960  -8.607  13.576  0.00  0.00    +0.000 C 
ATOM   1285  C1' U   B  24      20.443  -8.953  13.379  0.00  0.00    +0.000 C 
BRANCH12851286
ATOM   1286  N1  U   B  24      21.208  -8.855  14.641  0.00  0.00    +0.000 N 
ATOM   1287  C2  U   B  24      21.136  -9.930  15.512  0.00  0.00    +0.000 A 
ATOM   1288  O2  U   B  24      20.483 -10.929  15.281  0.00  0.00    +0.000 OA
ATOM   1289  N3  U   B  24      21.866  -9.788  16.667  0.00  0.00    +0.000 N 
ATOM   1290  C4  U   B  24      22.639  -8.708  17.033  0.00  0.00    +0.000 A 
ATOM   1291  O4  U   B  24      23.238  -8.729  18.109  0.00  0.00    +0.000 OA
ATOM   1292  C5  U   B  24      22.659  -7.640  16.083  0.00  0.00    +0.000 A 
ATOM   1293  C6  U   B  24      21.958  -7.749  14.948  0.00  0.00    +0.000 A 
ATOM   1294  H   U   B  24      21.833 -10.540  17.302  0.00  0.00    +0.000 HD
ENDBRANCH12851286
BRANCH12841295
ATOM   1295  O2' U   B  24      18.196  -9.378  12.665  0.00  0.00    +0.000 OA
ATOM   1296  H   U   B  24      18.526  -9.235  11.764  0.00  0.00    +0.000 HD
ENDBRANCH12841295
BRANCH12811297
ATOM   1297  C5' U   B  24      20.569  -5.726  11.793  0.00  0.00    +0.000 C 
BRANCH12971298
ATOM   1298  O5' U   B  24      21.119  -5.160  12.969  0.00  0.00    +0.000 OA
BRANCH12981299
ATOM   1299  P   U   B  24      21.925  -3.786  12.913  0.00  0.00    +0.000 P 
ATOM   1300  OP1 U   B  24      21.094  -2.786  12.195  0.00  0.00    +0.000 OA
BRANCH12991301
ATOM   1301  OP2 U   B  24      22.425  -3.487  14.278  0.00  0.00    +0.000 OA
ATOM   1302  H   U   B  24      22.920  -2.653  14.266  0.00  0.00    +0.000 HD
ENDBRANCH12991301
BRANCH12991303
ATOM   1303  O3' U   B  23      23.177  -4.136  11.983  0.00  0.00    +0.000 OA
BRANCH13031306
ATOM   1304  C4' U   B  23      25.572  -4.635  11.964  0.00  0.00    +0.000 C 
ATOM   1305  O4' U   B  23      26.342  -5.862  12.107  0.00  0.00    +0.000 OA
ATOM   1306  C3' U   B  23      24.190  -5.012  12.457  0.00  0.00    +0.000 C 
ATOM   1307  C2' U   B  23      24.041  -6.440  11.954  0.00  0.00    +0.000 C 
ATOM   1308  C1' U   B  23      25.468  -6.972  12.139  0.00  0.00    +0.000 C 
BRANCH13081309
ATOM   1309  N1  U   B  23      25.637  -7.664  13.434  0.00  0.00    +0.000 N 
ATOM   1310  C2  U   B  23      25.223  -8.984  13.508  0.00  0.00    +0.000 A 
ATOM   1311  O2  U   B  23      24.734  -9.580  12.568  0.00  0.00    +0.000 OA
ATOM   1312  N3  U   B  23      25.406  -9.581  14.733  0.00  0.00    +0.000 N 
ATOM   1313  C4  U   B  23      25.946  -9.007  15.863  0.00  0.00    +0.000 A 
ATOM   1314  O4  U   B  23      26.045  -9.675  16.893  0.00  0.00    +0.000 OA
ATOM   1315  C5  U   B  23      26.347  -7.645  15.705  0.00  0.00    +0.000 A 
ATOM   1316  C6  U   B  23      26.182  -7.036  14.523  0.00  0.00    +0.000 A 
ATOM   1317  H   U   B  23      25.120 -10.520  14.811  0.00  0.00    +0.000 HD
ENDBRANCH13081309
BRANCH13071318
ATOM   1318  O2' U   B  23      23.728  -6.468  10.573  0.00  0.00    +0.000 OA
ATOM   1319  H   U   B  23      24.405  -5.981  10.078  0.00  0.00    +0.000 HD
ENDBRANCH13071318
BRANCH13041320
ATOM   1320  C5' U   B  23      26.253  -3.513  12.713  0.00  0.00    +0.000 C 
BRANCH13201321
ATOM   1321  O5' U   B  23      26.215  -3.722  14.116  0.00  0.00    +0.000 OA
BRANCH13211322
ATOM   1322  P   U   B  23      26.950  -2.722  15.113  0.00  0.00    +0.000 P 
ATOM   1323  OP1 U   B  23      26.566  -1.337  14.747  0.00  0.00    +0.000 OA
BRANCH13221324
ATOM   1324  OP2 U   B  23      26.730  -3.209  16.500  0.00  0.00    +0.000 OA
ATOM   1325  H   U   B  23      25.796  -3.098  16.737  0.00  0.00    +0.000 HD
ENDBRANCH13221324
BRANCH13221326
ATOM   1326  O3' C   B  22      28.499  -2.923  14.762  0.00  0.00    +0.000 OA
BRANCH13261329
ATOM   1327  C4' C   B  22      30.629  -3.814  15.567  0.00  0.00    +0.000 C 
ATOM   1328  O4' C   B  22      31.269  -5.117  15.474  0.00  0.00    +0.000 OA
ATOM   1329  C3' C   B  22      29.185  -4.089  15.194  0.00  0.00    +0.000 C 
ATOM   1330  C2' C   B  22      29.323  -5.146  14.106  0.00  0.00    +0.000 C 
ATOM   1331  C1' C   B  22      30.511  -5.963  14.630  0.00  0.00    +0.000 C 
BRANCH13311332
ATOM   1332  N1  C   B  22      30.077  -7.144  15.410  0.00  0.00    +0.000 N 
ATOM   1333  C2  C   B  22      29.698  -8.299  14.719  0.00  0.00    +0.000 A 
ATOM   1334  O2  C   B  22      29.736  -8.303  13.481  0.00  0.00    +0.000 OA
ATOM   1335  N3  C   B  22      29.300  -9.389  15.419  0.00  0.00    +0.000 NA
ATOM   1336  C4  C   B  22      29.271  -9.353  16.753  0.00  0.00    +0.000 A 
ATOM   1337  N4  C   B  22      28.873 -10.451  17.400  0.00  0.00    +0.000 N 
ATOM   1338  C5  C   B  22      29.649  -8.191  17.478  0.00  0.00    +0.000 A 
ATOM   1339  C6  C   B  22      30.041  -7.120  16.774  0.00  0.00    +0.000 A 
ATOM   1340  H   C   B  22      28.612 -11.254  16.893  0.00  0.00    +0.000 HD
ATOM   1341  H   C   B  22      28.840 -10.458  18.384  0.00  0.00    +0.000 HD
ENDBRANCH13311332
BRANCH13301342
ATOM   1342  O2' C   B  22      29.689  -4.564  12.865  0.00  0.00    +0.000 OA
ATOM   1343  H   C   B  22      30.507  -4.055  12.976  0.00  0.00    +0.000 HD
ENDBRANCH13301342
BRANCH13271344
ATOM   1344  C5' C   B  22      30.850  -3.230  16.942  0.00  0.00    +0.000 C 
BRANCH13441345
ATOM   1345  O5' C   B  22      30.232  -4.016  17.949  0.00  0.00    +0.000 OA
BRANCH13451346
ATOM   1346  P   C   B  22      30.468  -3.700  19.493  0.00  0.00    +0.000 P 
ATOM   1347  OP1 C   B  22      30.168  -2.265  19.721  0.00  0.00    +0.000 OA
BRANCH13461348
ATOM   1348  OP2 C   B  22      29.763  -4.741  20.291  0.00  0.00    +0.000 OA
ATOM   1349  H   C   B  22      30.072  -5.620  20.021  0.00  0.00    +0.000 HD
ENDBRANCH13461348
BRANCH13461350
ATOM   1350  O3' A   B  21      32.048  -3.897  19.678  0.00  0.00    +0.000 OA
BRANCH13501353
ATOM   1351  C4' A   B  21      33.841  -5.330  20.539  0.00  0.00    +0.000 C 
ATOM   1352  O4' A   B  21      34.507  -6.515  20.025  0.00  0.00    +0.000 OA
ATOM   1353  C3' A   B  21      32.594  -5.209  19.681  0.00  0.00    +0.000 C 
ATOM   1354  C2' A   B  21      33.097  -5.656  18.316  0.00  0.00    +0.000 C 
ATOM   1355  C1' A   B  21      34.067  -6.773  18.704  0.00  0.00    +0.000 C 
BRANCH13551356
ATOM   1356  N9  A   B  21      33.420  -8.096  18.670  0.00  0.00    +0.000 N 
ATOM   1357  C8  A   B  21      32.993  -8.855  19.731  0.00  0.00    +0.000 A 
ATOM   1358  N7  A   B  21      32.452  -9.999  19.374  0.00  0.00    +0.000 NA
ATOM   1359  C5  A   B  21      32.527  -9.989  17.987  0.00  0.00    +0.000 A 
ATOM   1360  C6  A   B  21      32.127 -10.911  17.009  0.00  0.00    +0.000 A 
ATOM   1361  N1  A   B  21      32.346 -10.593  15.717  0.00  0.00    +0.000 NA
ATOM   1362  C2  A   B  21      32.930  -9.422  15.430  0.00  0.00    +0.000 A 
ATOM   1363  N3  A   B  21      33.353  -8.473  16.264  0.00  0.00    +0.000 NA
ATOM   1364  C4  A   B  21      33.119  -8.823  17.542  0.00  0.00    +0.000 A 
BRANCH13601365
ATOM   1365  N6  A   B  21      31.539 -12.081  17.290  0.00  0.00    +0.000 N 
ATOM   1366  H   A   B  21      31.280 -12.689  16.561  0.00  0.00    +0.000 HD
ATOM   1367  H   A   B  21      31.366 -12.333  18.226  0.00  0.00    +0.000 HD
ENDBRANCH13601365
ENDBRANCH13551356
BRANCH13541368
ATOM   1368  O2' A   B  21      33.830  -4.624  17.672  0.00  0.00    +0.000 OA
ATOM   1369  H   A   B  21      34.558  -4.338  18.246  0.00  0.00    +0.000 HD
ENDBRANCH13541368
BRANCH13511370
ATOM   1370  C5' A   B  21      33.610  -5.474  22.023  0.00  0.00    +0.000 C 
BRANCH13701371
ATOM   1371  O5' A   B  21      32.793  -6.602  22.313  0.00  0.00    +0.000 OA
BRANCH13711372
ATOM   1372  P   A   B  21      32.635  -7.125  23.814  0.00  0.00    +0.000 P 
ATOM   1373  OP2 A   B  21      31.801  -8.354  23.787  0.00  0.00    +0.000 OA
BRANCH13721374
ATOM   1374  OP1 A   B  21      32.230  -5.978  24.662  0.00  0.00    +0.000 OA
ATOM   1375  H   A   B  21      31.326  -5.710  24.434  0.00  0.00    +0.000 HD
ENDBRANCH13721374
BRANCH13721376
ATOM   1376  O3' A   B  20      34.131  -7.522  24.234  0.00  0.00    +0.000 OA
BRANCH13761379
ATOM   1377  C4' A   B  20      35.724  -9.348  24.619  0.00  0.00    +0.000 C 
ATOM   1378  O4' A   B  20      36.549 -10.154  23.734  0.00  0.00    +0.000 OA
ATOM   1379  C3' A   B  20      34.720  -8.694  23.686  0.00  0.00    +0.000 C 
ATOM   1380  C2' A   B  20      35.558  -8.425  22.445  0.00  0.00    +0.000 C 
ATOM   1381  C1' A   B  20      36.443  -9.672  22.408  0.00  0.00    +0.000 C 
BRANCH13811382
ATOM   1382  N9  A   B  20      35.856 -10.730  21.568  0.00  0.00    +0.000 N 
ATOM   1383  C8  A   B  20      35.185 -11.857  21.975  0.00  0.00    +0.000 A 
ATOM   1384  N7  A   B  20      34.778 -12.614  20.981  0.00  0.00    +0.000 NA
ATOM   1385  C5  A   B  20      35.209 -11.939  19.846  0.00  0.00    +0.000 A 
ATOM   1386  C6  A   B  20      35.094 -12.218  18.477  0.00  0.00    +0.000 A 
ATOM   1387  N1  A   B  20      35.633 -11.341  17.608  0.00  0.00    +0.000 NA
ATOM   1388  C2  A   B  20      36.247 -10.251  18.087  0.00  0.00    +0.000 A 
ATOM   1389  N3  A   B  20      36.422  -9.879  19.356  0.00  0.00    +0.000 NA
ATOM   1390  C4  A   B  20      35.872 -10.777  20.195  0.00  0.00    +0.000 A 
BRANCH13861391
ATOM   1391  N6  A   B  20      34.477 -13.303  17.991  0.00  0.00    +0.000 N 
ATOM   1392  H   A   B  20      34.427 -13.447  17.018  0.00  0.00    +0.000 HD
ATOM   1393  H   A   B  20      34.073 -13.957  18.606  0.00  0.00    +0.000 HD
ENDBRANCH13861391
ENDBRANCH13811382
BRANCH13801394
ATOM   1394  O2' A   B  20      36.387  -7.288  22.618  0.00  0.00    +0.000 OA
ATOM   1395  H   A   B  20      36.941  -7.409  23.405  0.00  0.00    +0.000 HD
ENDBRANCH13801394
BRANCH13771396
ATOM   1396  C5' A   B  20      35.147 -10.215  25.709  0.00  0.00    +0.000 C 
BRANCH13961397
ATOM   1397  O5' A   B  20      34.328 -11.251  25.174  0.00  0.00    +0.000 OA
BRANCH13971398
ATOM   1398  P   A   B  20      33.894 -12.493  26.074  0.00  0.00    +0.000 P 
ATOM   1399  OP2 A   B  20      33.113 -13.430  25.227  0.00  0.00    +0.000 OA
BRANCH13981400
ATOM   1400  OP1 A   B  20      33.301 -11.968  27.330  0.00  0.00    +0.000 OA
ATOM   1401  H   A   B  20      32.451 -11.544  27.134  0.00  0.00    +0.000 HD
ENDBRANCH13981400
BRANCH13981402
ATOM   1402  O3' A   B  19      35.289 -13.181  26.446  0.00  0.00    +0.000 OA
BRANCH14021405
ATOM   1403  C4' A   B  19      36.703 -15.159  26.124  0.00  0.00    +0.000 C 
ATOM   1404  O4' A   B  19      37.698 -15.521  25.131  0.00  0.00    +0.000 OA
ATOM   1405  C3' A   B  19      35.957 -13.997  25.490  0.00  0.00    +0.000 C 
ATOM   1406  C2' A   B  19      37.062 -13.268  24.736  0.00  0.00    +0.000 C 
ATOM   1407  C1' A   B  19      37.907 -14.441  24.241  0.00  0.00    +0.000 C 
BRANCH14071408
ATOM   1408  N9  A   B  19      37.519 -14.872  22.887  0.00  0.00    +0.000 N 
ATOM   1409  C8  A   B  19      36.797 -15.983  22.532  0.00  0.00    +0.000 A 
ATOM   1410  N7  A   B  19      36.612 -16.101  21.237  0.00  0.00    +0.000 NA
ATOM   1411  C5  A   B  19      37.257 -14.994  20.703  0.00  0.00    +0.000 A 
ATOM   1412  C6  A   B  19      37.430 -14.541  19.387  0.00  0.00    +0.000 A 
ATOM   1413  N1  A   B  19      38.124 -13.402  19.197  0.00  0.00    +0.000 NA
ATOM   1414  C2  A   B  19      38.613 -12.760  20.269  0.00  0.00    +0.000 A 
ATOM   1415  N3  A   B  19      38.519 -13.087  21.558  0.00  0.00    +0.000 NA
ATOM   1416  C4  A   B  19      37.820 -14.229  21.709  0.00  0.00    +0.000 A 
BRANCH14121417
ATOM   1417  N6  A   B  19      36.940 -15.175  18.314  0.00  0.00    +0.000 N 
ATOM   1418  H   A   B  19      37.094 -14.809  17.413  0.00  0.00    +0.000 HD
ATOM   1419  H   A   B  19      36.426 -16.007  18.426  0.00  0.00    +0.000 HD
ENDBRANCH14121417
ENDBRANCH14071408
BRANCH14061420
ATOM   1420  O2' A   B  19      37.847 -12.476  25.614  0.00  0.00    +0.000 OA
ATOM   1421  H   A   B  19      38.202 -13.035  26.323  0.00  0.00    +0.000 HD
ENDBRANCH14061420
BRANCH14031422
ATOM   1422  C5' A   B  19      35.862 -16.363  26.466  0.00  0.00    +0.000 C 
BRANCH14221423
ATOM   1423  O5' A   B  19      35.108 -16.814  25.345  0.00  0.00    +0.000 OA
BRANCH14231424
ATOM   1424  P   A   B  19      34.256 -18.153  25.414  0.00  0.00    +0.000 P 
ATOM   1425  OP2 A   B  19      33.674 -18.410  24.071  0.00  0.00    +0.000 OA
BRANCH14241426
ATOM   1426  OP1 A   B  19      33.365 -18.070  26.600  0.00  0.00    +0.000 OA
ATOM   1427  H   A   B  19      32.691 -17.389  26.451  0.00  0.00    +0.000 HD
ENDBRANCH14241426
BRANCH14241428
ATOM   1428  O3' G   B  18      35.340 -19.275  25.699  0.00  0.00    +0.000 OA
BRANCH14281431
ATOM   1429  C4' G   B  18      36.471 -21.227  24.773  0.00  0.00    +0.000 C 
ATOM   1430  O4' G   B  18      37.692 -21.406  24.019  0.00  0.00    +0.000 OA
ATOM   1431  C3' G   B  18      36.174 -19.740  24.651  0.00  0.00    +0.000 C 
ATOM   1432  C2' G   B  18      37.562 -19.123  24.651  0.00  0.00    +0.000 C 
ATOM   1433  C1' G   B  18      38.356 -20.168  23.860  0.00  0.00    +0.000 C 
BRANCH14331434
ATOM   1434  N9  G   B  18      38.394 -19.851  22.419  0.00  0.00    +0.000 N 
ATOM   1435  C8  G   B  18      37.819 -20.571  21.400  0.00  0.00    +0.000 A 
ATOM   1436  N7  G   B  18      38.020 -20.043  20.224  0.00  0.00    +0.000 NA
ATOM   1437  C5  G   B  18      38.778 -18.907  20.483  0.00  0.00    +0.000 A 
ATOM   1438  C6  G   B  18      39.305 -17.935  19.602  0.00  0.00    +0.000 A 
ATOM   1439  O6  G   B  18      39.206 -17.874  18.367  0.00  0.00    +0.000 OA
ATOM   1440  N1  G   B  18      40.014 -16.950  20.283  0.00  0.00    +0.000 NA
ATOM   1441  C2  G   B  18      40.194 -16.909  21.643  0.00  0.00    +0.000 A 
ATOM   1442  N2  G   B  18      40.907 -15.883  22.127  0.00  0.00    +0.000 N 
ATOM   1443  N3  G   B  18      39.711 -17.813  22.478  0.00  0.00    +0.000 N 
ATOM   1444  C4  G   B  18      39.019 -18.779  21.834  0.00  0.00    +0.000 A 
ATOM   1445  H   G   B  18      41.271 -15.204  21.514  0.00  0.00    +0.000 HD
ATOM   1446  H   G   B  18      41.067 -15.808  23.096  0.00  0.00    +0.000 HD
ATOM   1447  H   G   B  18      39.840 -17.786  23.454  0.00  0.00    +0.000 HD
ENDBRANCH14331434
BRANCH14321448
ATOM   1448  O2' G   B  18      38.096 -19.056  25.965  0.00  0.00    +0.000 OA
ATOM   1449  H   G   B  18      38.097 -19.942  26.359  0.00  0.00    +0.000 HD
ENDBRANCH14321448
BRANCH14291450
ATOM   1450  C5' G   B  18      35.411 -22.152  24.241  0.00  0.00    +0.000 C 
BRANCH14501451
ATOM   1451  O5' G   B  18      35.706 -23.503  24.537  0.00  0.00    +0.000 OA
BRANCH14511452
ATOM   1452  P   G   B  18      36.144 -24.522  23.380  0.00  0.00    +0.000 P 
ATOM   1453  OP2 G   B  18      37.068 -23.820  22.453  0.00  0.00    +0.000 OA
BRANCH14521454
ATOM   1454  OP1 G   B  18      34.921 -25.165  22.841  0.00  0.00    +0.000 OA
ATOM   1455  H   G   B  18      35.166 -25.787  22.138  0.00  0.00    +0.000 HD
ENDBRANCH14521454
BRANCH14521456
ATOM   1456  O3' C   B  17      36.984 -25.598  24.179  0.00  0.00    +0.000 OA
BRANCH14561459
ATOM   1457  C4' C   B  17      39.088 -26.327  25.181  0.00  0.00    +0.000 C 
ATOM   1458  O4' C   B  17      39.805 -25.949  26.379  0.00  0.00    +0.000 OA
ATOM   1459  C3' C   B  17      38.100 -25.196  24.966  0.00  0.00    +0.000 C 
ATOM   1460  C2' C   B  17      37.722 -24.809  26.388  0.00  0.00    +0.000 C 
ATOM   1461  C1' C   B  17      39.052 -25.012  27.118  0.00  0.00    +0.000 C 
BRANCH14611462
ATOM   1462  N1  C   B  17      39.833 -23.764  27.233  0.00  0.00    +0.000 N 
ATOM   1463  C2  C   B  17      39.498 -22.854  28.242  0.00  0.00    +0.000 A 
ATOM   1464  O2  C   B  17      38.560 -23.119  29.010  0.00  0.00    +0.000 OA
ATOM   1465  N3  C   B  17      40.212 -21.705  28.355  0.00  0.00    +0.000 NA
ATOM   1466  C4  C   B  17      41.219 -21.450  27.516  0.00  0.00    +0.000 A 
ATOM   1467  N4  C   B  17      41.892 -20.308  27.667  0.00  0.00    +0.000 N 
ATOM   1468  C5  C   B  17      41.579 -22.357  26.485  0.00  0.00    +0.000 A 
ATOM   1469  C6  C   B  17      40.869 -23.490  26.380  0.00  0.00    +0.000 A 
ATOM   1470  H   C   B  17      42.639 -20.093  27.063  0.00  0.00    +0.000 HD
ATOM   1471  H   C   B  17      41.641 -19.680  28.382  0.00  0.00    +0.000 HD
ENDBRANCH14611462
BRANCH14601472
ATOM   1472  O2' C   B  17      36.763 -25.702  26.926  0.00  0.00    +0.000 OA
ATOM   1473  H   C   B  17      37.104 -26.609  26.880  0.00  0.00    +0.000 HD
ENDBRANCH14601472
BRANCH14571474
ATOM   1474  C5' C   B  17      40.069 -26.555  24.058  0.00  0.00    +0.000 C 
BRANCH14741475
ATOM   1475  O5' C   B  17      40.789 -25.368  23.754  0.00  0.00    +0.000 OA
BRANCH14751476
ATOM   1476  P   C   B  17      42.003 -25.389  22.728  0.00  0.00    +0.000 P 
ATOM   1477  OP1 C   B  17      41.528 -26.006  21.476  0.00  0.00    +0.000 OA
BRANCH14761478
ATOM   1478  OP2 C   B  17      42.614 -24.038  22.709  0.00  0.00    +0.000 OA
ATOM   1479  H   C   B  17      43.359 -24.029  22.088  0.00  0.00    +0.000 HD
ENDBRANCH14761478
BRANCH14761480
ATOM   1480  O3' C   B  16      43.045 -26.374  23.420  0.00  0.00    +0.000 OA
BRANCH14801483
ATOM   1481  C4' C   B  16      45.206 -26.631  24.540  0.00  0.00    +0.000 C 
ATOM   1482  O4' C   B  16      45.623 -26.583  25.921  0.00  0.00    +0.000 OA
ATOM   1483  C3' C   B  16      43.833 -25.981  24.534  0.00  0.00    +0.000 C 
ATOM   1484  C2' C   B  16      43.253 -26.423  25.862  0.00  0.00    +0.000 C 
ATOM   1485  C1' C   B  16      44.492 -26.404  26.752  0.00  0.00    +0.000 C 
BRANCH14851486
ATOM   1486  N1  C   B  16      44.643 -25.128  27.483  0.00  0.00    +0.000 N 
ATOM   1487  C2  C   B  16      43.904 -24.937  28.653  0.00  0.00    +0.000 A 
ATOM   1488  O2  C   B  16      43.146 -25.833  29.050  0.00  0.00    +0.000 OA
ATOM   1489  N3  C   B  16      44.039 -23.768  29.335  0.00  0.00    +0.000 NA
ATOM   1490  C4  C   B  16      44.867 -22.823  28.884  0.00  0.00    +0.000 A 
ATOM   1491  N4  C   B  16      44.964 -21.693  29.588  0.00  0.00    +0.000 N 
ATOM   1492  C5  C   B  16      45.629 -22.995  27.698  0.00  0.00    +0.000 A 
ATOM   1493  C6  C   B  16      45.490 -24.156  27.034  0.00  0.00    +0.000 A 
ATOM   1494  H   C   B  16      45.565 -20.974  29.285  0.00  0.00    +0.000 HD
ATOM   1495  H   C   B  16      44.435 -21.578  30.410  0.00  0.00    +0.000 HD
ENDBRANCH14851486
BRANCH14841496
ATOM   1496  O2' C   B  16      42.760 -27.749  25.792  0.00  0.00    +0.000 OA
ATOM   1497  H   C   B  16      43.468 -28.342  25.495  0.00  0.00    +0.000 HD
ENDBRANCH14841496
BRANCH14811498
ATOM   1498  C5' C   B  16      46.251 -25.962  23.688  0.00  0.00    +0.000 C 
BRANCH14981499
ATOM   1499  O5' C   B  16      46.555 -24.687  24.208  0.00  0.00    +0.000 OA
BRANCH14991500
ATOM   1500  P   C   B  16      47.880 -23.918  23.773  0.00  0.00    +0.000 P 
ATOM   1501  OP2 C   B  16      48.958 -24.925  23.634  0.00  0.00    +0.000 OA
BRANCH15001502
ATOM   1502  OP1 C   B  16      48.072 -22.746  24.680  0.00  0.00    +0.000 OA
ATOM   1503  H   C   B  16      48.877 -22.268  24.425  0.00  0.00    +0.000 HD
ENDBRANCH15001502
BRANCH15001504
ATOM   1504  O3' U   B  15      47.502 -23.397  22.367  0.00  0.00    +0.000 OA
BRANCH15041507
ATOM   1505  C4' U   B  15      47.257 -21.002  22.393  0.00  0.00    +0.000 C 
ATOM   1506  O4' U   B  15      46.274 -20.709  21.364  0.00  0.00    +0.000 OA
ATOM   1507  C3' U   B  15      48.064 -22.187  21.879  0.00  0.00    +0.000 C 
ATOM   1508  C2' U   B  15      47.871 -22.111  20.382  0.00  0.00    +0.000 C 
ATOM   1509  C1' U   B  15      46.435 -21.604  20.286  0.00  0.00    +0.000 C 
BRANCH15091510
ATOM   1510  N1  U   B  15      46.140 -20.885  19.037  0.00  0.00    +0.000 N 
ATOM   1511  C2  U   B  15      45.208 -21.443  18.177  0.00  0.00    +0.000 A 
ATOM   1512  O2  U   B  15      44.628 -22.491  18.418  0.00  0.00    +0.000 OA
ATOM   1513  N3  U   B  15      44.979 -20.728  17.029  0.00  0.00    +0.000 N 
ATOM   1514  C4  U   B  15      45.571 -19.539  16.661  0.00  0.00    +0.000 A 
ATOM   1515  O4  U   B  15      45.261 -19.019  15.593  0.00  0.00    +0.000 OA
ATOM   1516  C5  U   B  15      46.520 -19.029  17.598  0.00  0.00    +0.000 A 
ATOM   1517  C6  U   B  15      46.768 -19.704  18.731  0.00  0.00    +0.000 A 
ATOM   1518  H   U   B  15      44.321 -21.104  16.401  0.00  0.00    +0.000 HD
ENDBRANCH15091510
BRANCH15081519
ATOM   1519  O2' U   B  15      48.040 -23.335  19.695  0.00  0.00    +0.000 OA
ATOM   1520  H   U   B  15      47.413 -23.989  20.041  0.00  0.00    +0.000 HD
ENDBRANCH15081519
BRANCH15051521
ATOM   1521  C5' U   B  15      48.062 -19.753  22.674  0.00  0.00    +0.000 C 
BRANCH15211522
ATOM   1522  O5' U   B  15      48.594 -19.193  21.485  0.00  0.00    +0.000 OA
BRANCH15221523
ATOM   1523  P   U   B  15      49.287 -17.763  21.495  0.00  0.00    +0.000 P 
ATOM   1524  OP2 U   B  15      49.478 -17.335  20.084  0.00  0.00    +0.000 OA
BRANCH15231525
ATOM   1525  OP1 U   B  15      50.448 -17.809  22.416  0.00  0.00    +0.000 OA
ATOM   1526  H   U   B  15      51.133 -18.386  22.044  0.00  0.00    +0.000 HD
ENDBRANCH15231525
BRANCH15231527
ATOM   1527  O3' A   B  14      48.198 -16.806  22.153  0.00  0.00    +0.000 OA
BRANCH15271530
ATOM   1528  C4' A   B  14      46.584 -15.029  21.694  0.00  0.00    +0.000 C 
ATOM   1529  O4' A   B  14      45.185 -15.030  21.318  0.00  0.00    +0.000 OA
ATOM   1530  C3' A   B  14      47.027 -16.455  21.432  0.00  0.00    +0.000 C 
ATOM   1531  C2' A   B  14      45.809 -17.261  21.843  0.00  0.00    +0.000 C 
ATOM   1532  C1' A   B  14      44.674 -16.348  21.375  0.00  0.00    +0.000 C 
BRANCH15321533
ATOM   1533  N9  A   B  14      44.169 -16.721  20.044  0.00  0.00    +0.000 N 
ATOM   1534  C8  A   B  14      44.379 -16.084  18.845  0.00  0.00    +0.000 A 
ATOM   1535  N7  A   B  14      43.788 -16.670  17.828  0.00  0.00    +0.000 NA
ATOM   1536  C5  A   B  14      43.147 -17.766  18.403  0.00  0.00    +0.000 A 
ATOM   1537  C6  A   B  14      42.347 -18.786  17.864  0.00  0.00    +0.000 A 
ATOM   1538  N1  A   B  14      41.865 -19.723  18.704  0.00  0.00    +0.000 NA
ATOM   1539  C2  A   B  14      42.170 -19.635  20.006  0.00  0.00    +0.000 A 
ATOM   1540  N3  A   B  14      42.910 -18.723  20.631  0.00  0.00    +0.000 NA
ATOM   1541  C4  A   B  14      43.374 -17.807  19.761  0.00  0.00    +0.000 A 
BRANCH15371542
ATOM   1542  N6  A   B  14      42.042 -18.881  16.559  0.00  0.00    +0.000 N 
ATOM   1543  H   A   B  14      42.381 -18.210  15.924  0.00  0.00    +0.000 HD
ATOM   1544  H   A   B  14      41.479 -19.622  16.238  0.00  0.00    +0.000 HD
ENDBRANCH15371542
ENDBRANCH15321533
BRANCH15311545
ATOM   1545  O2' A   B  14      45.734 -17.401  23.249  0.00  0.00    +0.000 OA
ATOM   1546  H   A   B  14      45.738 -16.523  23.662  0.00  0.00    +0.000 HD
ENDBRANCH15311545
BRANCH15281547
ATOM   1547  C5' A   B  14      47.322 -13.951  20.934  0.00  0.00    +0.000 C 
BRANCH15471548
ATOM   1548  O5' A   B  14      47.236 -14.155  19.530  0.00  0.00    +0.000 OA
BRANCH15481549
ATOM   1549  P   A   B  14      47.763 -13.045  18.518  0.00  0.00    +0.000 P 
ATOM   1550  OP2 A   B  14      47.489 -13.519  17.137  0.00  0.00    +0.000 OA
BRANCH15491551
ATOM   1551  OP1 A   B  14      49.141 -12.672  18.909  0.00  0.00    +0.000 OA
ATOM   1552  H   A   B  14      49.478 -11.995  18.301  0.00  0.00    +0.000 HD
ENDBRANCH15491551
BRANCH15491553
ATOM   1553  O3' C   B  13      46.821 -11.787  18.814  0.00  0.00    +0.000 OA
BRANCH15531556
ATOM   1554  C4' C   B  13      44.872 -10.483  18.114  0.00  0.00    +0.000 C 
ATOM   1555  O4' C   B  13      43.440 -10.682  18.254  0.00  0.00    +0.000 OA
ATOM   1556  C3' C   B  13      45.455 -11.843  18.443  0.00  0.00    +0.000 C 
ATOM   1557  C2' C   B  13      44.547 -12.324  19.562  0.00  0.00    +0.000 C 
ATOM   1558  C1' C   B  13      43.190 -11.793  19.094  0.00  0.00    +0.000 C 
BRANCH15581559
ATOM   1559  N1  C   B  13      42.432 -12.807  18.327  0.00  0.00    +0.000 N 
ATOM   1560  C2  C   B  13      41.728 -13.783  19.043  0.00  0.00    +0.000 A 
ATOM   1561  O2  C   B  13      41.755 -13.766  20.281  0.00  0.00    +0.000 OA
ATOM   1562  N3  C   B  13      41.028 -14.723  18.363  0.00  0.00    +0.000 NA
ATOM   1563  C4  C   B  13      41.019 -14.714  17.029  0.00  0.00    +0.000 A 
ATOM   1564  N4  C   B  13      40.318 -15.659  16.402  0.00  0.00    +0.000 N 
ATOM   1565  C5  C   B  13      41.729 -13.737  16.279  0.00  0.00    +0.000 A 
ATOM   1566  C6  C   B  13      42.417 -12.810  16.962  0.00  0.00    +0.000 A 
ATOM   1567  H   C   B  13      40.291 -15.680  15.418  0.00  0.00    +0.000 HD
ATOM   1568  H   C   B  13      39.828 -16.335  16.923  0.00  0.00    +0.000 HD
ENDBRANCH15581559
BRANCH15571569
ATOM   1569  O2' C   B  13      44.874 -11.706  20.793  0.00  0.00    +0.000 OA
ATOM   1570  H   C   B  13      44.837 -10.742  20.691  0.00  0.00    +0.000 HD
ENDBRANCH15571569
BRANCH15541571
ATOM   1571  C5' C   B  13      45.186  -9.935  16.743  0.00  0.00    +0.000 C 
BRANCH15711572
ATOM   1572  O5' C   B  13      44.786 -10.829  15.714  0.00  0.00    +0.000 OA
BRANCH15721573
ATOM   1573  P   C   B  13      44.789 -10.369  14.190  0.00  0.00    +0.000 P 
ATOM   1574  OP2 C   B  13      44.289 -11.499  13.364  0.00  0.00    +0.000 OA
BRANCH15731575
ATOM   1575  OP1 C   B  13      46.106  -9.763  13.886  0.00  0.00    +0.000 OA
ATOM   1576  H   C   B  13      46.124  -9.477  12.959  0.00  0.00    +0.000 HD
ENDBRANCH15731575
BRANCH15731577
ATOM   1577  O3' U   B  12      43.703  -9.199  14.160  0.00  0.00    +0.000 OA
BRANCH15771580
ATOM   1578  C4' U   B  12      41.441  -8.526  13.521  0.00  0.00    +0.000 C 
ATOM   1579  O4' U   B  12      40.133  -8.722  14.125  0.00  0.00    +0.000 OA
ATOM   1580  C3' U   B  12      42.323  -9.521  14.247  0.00  0.00    +0.000 C 
ATOM   1581  C2' U   B  12      41.779  -9.473  15.666  0.00  0.00    +0.000 C 
ATOM   1582  C1' U   B  12      40.276  -9.316  15.400  0.00  0.00    +0.000 C 
BRANCH15821583
ATOM   1583  N1  U   B  12      39.579 -10.621  15.393  0.00  0.00    +0.000 N 
ATOM   1584  C2  U   B  12      39.224 -11.156  16.619  0.00  0.00    +0.000 A 
ATOM   1585  O2  U   B  12      39.459 -10.602  17.679  0.00  0.00    +0.000 OA
ATOM   1586  N3  U   B  12      38.576 -12.369  16.563  0.00  0.00    +0.000 N 
ATOM   1587  C4  U   B  12      38.259 -13.083  15.426  0.00  0.00    +0.000 A 
ATOM   1588  O4  U   B  12      37.677 -14.163  15.534  0.00  0.00    +0.000 OA
ATOM   1589  C5  U   B  12      38.660 -12.467  14.201  0.00  0.00    +0.000 A 
ATOM   1590  C6  U   B  12      39.292 -11.285  14.224  0.00  0.00    +0.000 A 
ATOM   1591  H   U   B  12      38.311 -12.768  17.423  0.00  0.00    +0.000 HD
ENDBRANCH15821583
BRANCH15811592
ATOM   1592  O2' U   B  12      42.238  -8.325  16.356  0.00  0.00    +0.000 OA
ATOM   1593  H   U   B  12      42.001  -7.530  15.854  0.00  0.00    +0.000 HD
ENDBRANCH15811592
BRANCH15781594
ATOM   1594  C5' U   B  12      41.341  -8.696  12.024  0.00  0.00    +0.000 C 
BRANCH15941595
ATOM   1595  O5' U   B  12      40.945 -10.012  11.666  0.00  0.00    +0.000 OA
BRANCH15951596
ATOM   1596  P   U   B  12      40.543 -10.370  10.169  0.00  0.00    +0.000 P 
ATOM   1597  OP1 U   B  12      41.621  -9.892   9.268  0.00  0.00    +0.000 OA
BRANCH15961598
ATOM   1598  OP2 U   B  12      40.128 -11.798  10.126  0.00  0.00    +0.000 OA
ATOM   1599  H   U   B  12      39.879 -12.035   9.219  0.00  0.00    +0.000 HD
ENDBRANCH15961598
BRANCH15961600
ATOM   1600  O3' U   B  11      39.245  -9.466   9.908  0.00  0.00    +0.000 OA
BRANCH16001603
ATOM   1601  C4' U   B  11      36.813  -9.436   9.651  0.00  0.00    +0.000 C 
ATOM   1602  O4' U   B  11      35.711  -9.384  10.595  0.00  0.00    +0.000 OA
ATOM   1603  C3' U   B  11      38.004  -9.822  10.502  0.00  0.00    +0.000 C 
ATOM   1604  C2' U   B  11      37.733  -9.095  11.809  0.00  0.00    +0.000 C 
ATOM   1605  C1' U   B  11      36.210  -9.221  11.907  0.00  0.00    +0.000 C 
BRANCH16051606
ATOM   1606  N1  U   B  11      35.800 -10.393  12.710  0.00  0.00    +0.000 N 
ATOM   1607  C2  U   B  11      35.831 -10.267  14.086  0.00  0.00    +0.000 A 
ATOM   1608  O2  U   B  11      36.181  -9.246  14.653  0.00  0.00    +0.000 OA
ATOM   1609  N3  U   B  11      35.434 -11.384  14.783  0.00  0.00    +0.000 N 
ATOM   1610  C4  U   B  11      35.020 -12.589  14.254  0.00  0.00    +0.000 A 
ATOM   1611  O4  U   B  11      34.696 -13.504  15.011  0.00  0.00    +0.000 OA
ATOM   1612  C5  U   B  11      35.015 -12.641  12.829  0.00  0.00    +0.000 A 
ATOM   1613  C6  U   B  11      35.395 -11.568  12.122  0.00  0.00    +0.000 A 
ATOM   1614  H   U   B  11      35.447 -11.317  15.765  0.00  0.00    +0.000 HD
ENDBRANCH16051606
BRANCH16041615
ATOM   1615  O2' U   B  11      38.066  -7.721  11.712  0.00  0.00    +0.000 OA
ATOM   1616  H   U   B  11      37.582  -7.323  10.972  0.00  0.00    +0.000 HD
ENDBRANCH16041615
BRANCH16011617
ATOM   1617  C5' U   B  11      36.474 -10.385   8.528  0.00  0.00    +0.000 C 
BRANCH16171618
ATOM   1618  O5' U   B  11      36.306 -11.717   9.000  0.00  0.00    +0.000 OA
BRANCH16181619
ATOM   1619  P   U   B  11      35.815 -12.878   8.030  0.00  0.00    +0.000 P 
ATOM   1620  OP1 U   B  11      36.669 -12.856   6.819  0.00  0.00    +0.000 OA
BRANCH16191621
ATOM   1621  OP2 U   B  11      35.692 -14.129   8.821  0.00  0.00    +0.000 OA
ATOM   1622  H   U   B  11      35.393 -14.849   8.243  0.00  0.00    +0.000 HD
ENDBRANCH16191621
BRANCH16191623
ATOM   1623  O3' U   B  10      34.334 -12.418   7.593  0.00  0.00    +0.000 OA
BRANCH16231626
ATOM   1624  C4' U   B  10      31.928 -12.792   7.840  0.00  0.00    +0.000 C 
ATOM   1625  O4' U   B  10      30.943 -12.335   8.798  0.00  0.00    +0.000 OA
ATOM   1626  C3' U   B  10      33.259 -12.537   8.517  0.00  0.00    +0.000 C 
ATOM   1627  C2' U   B  10      33.001 -11.260   9.294  0.00  0.00    +0.000 C 
ATOM   1628  C1' U   B  10      31.555 -11.475   9.735  0.00  0.00    +0.000 C 
BRANCH16281629
ATOM   1629  N1  U   B  10      31.474 -12.113  11.072  0.00  0.00    +0.000 N 
ATOM   1630  C2  U   B  10      31.768 -11.339  12.176  0.00  0.00    +0.000 A 
ATOM   1631  O2  U   B  10      32.101 -10.168  12.107  0.00  0.00    +0.000 OA
ATOM   1632  N3  U   B  10      31.667 -11.988  13.384  0.00  0.00    +0.000 N 
ATOM   1633  C4  U   B  10      31.303 -13.303  13.588  0.00  0.00    +0.000 A 
ATOM   1634  O4  U   B  10      31.256 -13.740  14.738  0.00  0.00    +0.000 OA
ATOM   1635  C5  U   B  10      31.007 -14.039  12.399  0.00  0.00    +0.000 A 
ATOM   1636  C6  U   B  10      31.103 -13.430  11.207  0.00  0.00    +0.000 A 
ATOM   1637  H   U   B  10      31.876 -11.459  14.187  0.00  0.00    +0.000 HD
ENDBRANCH16281629
BRANCH16271638
ATOM   1638  O2' U   B  10      33.058 -10.116   8.459  0.00  0.00    +0.000 OA
ATOM   1639  H   U   B  10      32.429 -10.218   7.727  0.00  0.00    +0.000 HD
ENDBRANCH16271638
BRANCH16241640
ATOM   1640  C5' U   B  10      31.641 -14.226   7.475  0.00  0.00    +0.000 C 
BRANCH16401641
ATOM   1641  O5' U   B  10      31.646 -15.065   8.616  0.00  0.00    +0.000 OA
BRANCH16411642
ATOM   1642  P   U   B  10      31.851 -16.642   8.477  0.00  0.00    +0.000 P 
ATOM   1643  OP2 U   B  10      30.634 -17.206   7.861  0.00  0.00    +0.000 OA
BRANCH16421644
ATOM   1644  OP1 U   B  10      32.338 -17.179   9.782  0.00  0.00    +0.000 OA
ATOM   1645  H   U   B  10      32.466 -18.138   9.709  0.00  0.00    +0.000 HD
ENDBRANCH16421644
BRANCH16421646
ATOM   1646  O3' A   B   9      33.009 -16.727   7.443  0.00  0.00    +0.000 OA
BRANCH16461649
ATOM   1647  C4' A   B   9      34.168 -18.382   6.079  0.00  0.00    +0.000 C 
ATOM   1648  O4' A   B   9      34.188 -18.654   4.651  0.00  0.00    +0.000 OA
ATOM   1649  C3' A   B   9      32.924 -17.527   6.286  0.00  0.00    +0.000 C 
ATOM   1650  C2' A   B   9      32.852 -16.717   4.994  0.00  0.00    +0.000 C 
ATOM   1651  C1' A   B   9      33.376 -17.725   3.969  0.00  0.00    +0.000 C 
BRANCH16511652
ATOM   1652  N9  A   B   9      32.296 -18.482   3.303  0.00  0.00    +0.000 N 
ATOM   1653  C8  A   B   9      31.189 -19.071   3.867  0.00  0.00    +0.000 A 
ATOM   1654  N7  A   B   9      30.421 -19.693   3.005  0.00  0.00    +0.000 NA
ATOM   1655  C5  A   B   9      31.065 -19.496   1.794  0.00  0.00    +0.000 A 
ATOM   1656  C6  A   B   9      30.766 -19.913   0.478  0.00  0.00    +0.000 A 
ATOM   1657  N1  A   B   9      31.618 -19.559  -0.511  0.00  0.00    +0.000 NA
ATOM   1658  C2  A   B   9      32.700 -18.835  -0.190  0.00  0.00    +0.000 A 
ATOM   1659  N3  A   B   9      33.094 -18.388   1.003  0.00  0.00    +0.000 NA
ATOM   1660  C4  A   B   9      32.222 -18.756   1.963  0.00  0.00    +0.000 A 
BRANCH16561661
ATOM   1661  N6  A   B   9      29.689 -20.633   0.164  0.00  0.00    +0.000 N 
ATOM   1662  H   A   B   9      29.529 -20.897  -0.771  0.00  0.00    +0.000 HD
ATOM   1663  H   A   B   9      29.054 -20.901   0.867  0.00  0.00    +0.000 HD
ENDBRANCH16561661
ENDBRANCH16511652
BRANCH16501664
ATOM   1664  O2' A   B   9      33.747 -15.617   5.030  0.00  0.00    +0.000 OA
ATOM   1665  H   A   B   9      34.646 -15.937   5.204  0.00  0.00    +0.000 HD
ENDBRANCH16501664
BRANCH16471666
ATOM   1666  C5' A   B   9      34.200 -19.679   6.835  0.00  0.00    +0.000 C 
BRANCH16661667
ATOM   1667  O5' A   B   9      35.154 -20.562   6.268  0.00  0.00    +0.000 OA
BRANCH16671668
ATOM   1668  P   A   B   9      34.659 -21.920   5.569  0.00  0.00    +0.000 P 
ATOM   1669  OP2 A   B   9      33.447 -21.642   4.758  0.00  0.00    +0.000 OA
BRANCH16681670
ATOM   1670  OP1 A   B   9      34.609 -22.973   6.619  0.00  0.00    +0.000 OA
ATOM   1671  H   A   B   9      34.312 -23.808   6.225  0.00  0.00    +0.000 HD
ENDBRANCH16681670
BRANCH16681672
ATOM   1672  O3' U   B   8      35.849 -22.267   4.578  0.00  0.00    +0.000 OA
BRANCH16721675
ATOM   1673  C4' U   B   8      37.684 -21.868   3.034  0.00  0.00    +0.000 C 
ATOM   1674  O4' U   B   8      38.636 -20.784   2.874  0.00  0.00    +0.000 OA
ATOM   1675  C3' U   B   8      36.566 -21.267   3.871  0.00  0.00    +0.000 C 
ATOM   1676  C2' U   B   8      37.299 -20.289   4.776  0.00  0.00    +0.000 C 
ATOM   1677  C1' U   B   8      38.419 -19.790   3.853  0.00  0.00    +0.000 C 
BRANCH16771678
ATOM   1678  N1  U   B   8      38.081 -18.520   3.173  0.00  0.00    +0.000 N 
ATOM   1679  C2  U   B   8      38.436 -17.337   3.793  0.00  0.00    +0.000 A 
ATOM   1680  O2  U   B   8      39.004 -17.297   4.871  0.00  0.00    +0.000 OA
ATOM   1681  N3  U   B   8      38.101 -16.196   3.102  0.00  0.00    +0.000 N 
ATOM   1682  C4  U   B   8      37.465 -16.116   1.878  0.00  0.00    +0.000 A 
ATOM   1683  O4  U   B   8      37.235 -15.012   1.381  0.00  0.00    +0.000 OA
ATOM   1684  C5  U   B   8      37.137 -17.381   1.305  0.00  0.00    +0.000 A 
ATOM   1685  C6  U   B   8      37.449 -18.511   1.955  0.00  0.00    +0.000 A 
ATOM   1686  H   U   B   8      38.341 -15.341   3.527  0.00  0.00    +0.000 HD
ENDBRANCH16771678
BRANCH16761687
ATOM   1687  O2' U   B   8      37.895 -20.959   5.878  0.00  0.00    +0.000 OA
ATOM   1688  H   U   B   8      38.485 -21.656   5.552  0.00  0.00    +0.000 HD
ENDBRANCH16761687
BRANCH16731689
ATOM   1689  C5' U   B   8      37.277 -22.377   1.672  0.00  0.00    +0.000 C 
BRANCH16891690
ATOM   1690  O5' U   B   8      36.864 -21.313   0.825  0.00  0.00    +0.000 OA
BRANCH16901691
ATOM   1691  P   U   B   8      37.034 -21.391  -0.754  0.00  0.00    +0.000 P 
ATOM   1692  OP2 U   B   8      36.506 -20.132  -1.343  0.00  0.00    +0.000 OA
BRANCH16911693
ATOM   1693  OP1 U   B   8      36.513 -22.697  -1.215  0.00  0.00    +0.000 OA
ATOM   1694  H   U   B   8      36.609 -22.762  -2.178  0.00  0.00    +0.000 HD
ENDBRANCH16911693
BRANCH16911695
ATOM   1695  O3' C   B   7      38.605 -21.371  -0.965  0.00  0.00    +0.000 OA
BRANCH16951698
ATOM   1696  C4' C   B   7      40.248 -19.632  -1.474  0.00  0.00    +0.000 C 
ATOM   1697  O4' C   B   7      41.400 -19.109  -0.767  0.00  0.00    +0.000 OA
ATOM   1698  C3' C   B   7      39.442 -20.361  -0.407  0.00  0.00    +0.000 C 
ATOM   1699  C2' C   B   7      40.520 -20.930   0.502  0.00  0.00    +0.000 C 
ATOM   1700  C1' C   B   7      41.602 -19.840   0.422  0.00  0.00    +0.000 C 
BRANCH17001701
ATOM   1701  N1  C   B   7      41.564 -18.909   1.564  0.00  0.00    +0.000 N 
ATOM   1702  C2  C   B   7      41.872 -19.377   2.848  0.00  0.00    +0.000 A 
ATOM   1703  O2  C   B   7      42.164 -20.570   3.011  0.00  0.00    +0.000 OA
ATOM   1704  N3  C   B   7      41.844 -18.512   3.893  0.00  0.00    +0.000 NA
ATOM   1705  C4  C   B   7      41.532 -17.231   3.697  0.00  0.00    +0.000 A 
ATOM   1706  N4  C   B   7      41.520 -16.419   4.755  0.00  0.00    +0.000 N 
ATOM   1707  C5  C   B   7      41.223 -16.725   2.408  0.00  0.00    +0.000 A 
ATOM   1708  C6  C   B   7      41.254 -17.590   1.378  0.00  0.00    +0.000 A 
ATOM   1709  H   C   B   7      41.293 -15.468   4.643  0.00  0.00    +0.000 HD
ATOM   1710  H   C   B   7      41.738 -16.771   5.648  0.00  0.00    +0.000 HD
ENDBRANCH17001701
BRANCH16991711
ATOM   1711  O2' C   B   7      41.065 -22.131  -0.029  0.00  0.00    +0.000 OA
ATOM   1712  H   C   B   7      41.406 -21.964  -0.922  0.00  0.00    +0.000 HD
ENDBRANCH16991711
BRANCH16961713
ATOM   1713  C5' C   B   7      39.538 -18.511  -2.184  0.00  0.00    +0.000 C 
BRANCH17131714
ATOM   1714  O5' C   B   7      40.400 -17.414  -2.441  0.00  0.00    +0.000 OA
BRANCH17141715
ATOM   1715  P   C   B   7      40.877 -17.059  -3.910  0.00  0.00    +0.000 P 
ATOM   1716  OP1 C   B   7      40.007 -17.779  -4.873  0.00  0.00    +0.000 OA
BRANCH17151717
ATOM   1717  OP2 C   B   7      41.010 -15.586  -3.992  0.00  0.00    +0.000 OA
ATOM   1718  H   C   B   7      41.302 -15.337  -4.883  0.00  0.00    +0.000 HD
ENDBRANCH17151717
BRANCH17151719
ATOM   1719  O3' A   B   6      42.360 -17.692  -4.001  0.00  0.00    +0.000 OA
BRANCH17191722
ATOM   1720  C4' A   B   6      44.639 -16.825  -3.776  0.00  0.00    +0.000 C 
ATOM   1721  O4' A   B   6      45.670 -16.995  -2.773  0.00  0.00    +0.000 OA
ATOM   1722  C3' A   B   6      43.373 -17.308  -3.085  0.00  0.00    +0.000 C 
ATOM   1723  C2' A   B   6      43.884 -18.463  -2.239  0.00  0.00    +0.000 C 
ATOM   1724  C1' A   B   6      45.251 -17.937  -1.809  0.00  0.00    +0.000 C 
BRANCH17241725
ATOM   1725  N9  A   B   6      45.203 -17.280  -0.491  0.00  0.00    +0.000 N 
ATOM   1726  C8  A   B   6      45.160 -15.935  -0.221  0.00  0.00    +0.000 A 
ATOM   1727  N7  A   B   6      45.126 -15.653   1.063  0.00  0.00    +0.000 NA
ATOM   1728  C5  A   B   6      45.147 -16.898   1.674  0.00  0.00    +0.000 A 
ATOM   1729  C6  A   B   6      45.132 -17.292   3.025  0.00  0.00    +0.000 A 
ATOM   1730  N6  A   B   6      45.083 -16.428   4.048  0.00  0.00    +0.000 N 
ATOM   1731  N1  A   B   6      45.162 -18.612   3.296  0.00  0.00    +0.000 NA
ATOM   1732  C2  A   B   6      45.208 -19.477   2.272  0.00  0.00    +0.000 A 
ATOM   1733  N3  A   B   6      45.231 -19.228   0.966  0.00  0.00    +0.000 NA
ATOM   1734  C4  A   B   6      45.197 -17.906   0.731  0.00  0.00    +0.000 A 
ATOM   1735  H   A   B   6      45.060 -15.459   3.874  0.00  0.00    +0.000 HD
ATOM   1736  H   A   B   6      45.070 -16.762   4.974  0.00  0.00    +0.000 HD
ENDBRANCH17241725
BRANCH17231737
ATOM   1737  O2' A   B   6      44.075 -19.632  -3.022  0.00  0.00    +0.000 OA
ATOM   1738  H   A   B   6      44.676 -19.434  -3.757  0.00  0.00    +0.000 HD
ENDBRANCH17231737
BRANCH17201739
ATOM   1739  C5' A   B   6      44.628 -15.394  -4.249  0.00  0.00    +0.000 C 
BRANCH17391740
ATOM   1740  O5' A   B   6      44.512 -14.492  -3.168  0.00  0.00    +0.000 OA
BRANCH17401741
ATOM   1741  P   A   B   6      44.933 -12.968  -3.333  0.00  0.00    +0.000 P 
ATOM   1742  OP1 A   B   6      44.298 -12.436  -4.560  0.00  0.00    +0.000 OA
BRANCH17411743
ATOM   1743  OP2 A   B   6      44.710 -12.290  -2.032  0.00  0.00    +0.000 OA
ATOM   1744  H   A   B   6      44.960 -11.356  -2.107  0.00  0.00    +0.000 HD
ENDBRANCH17411743
BRANCH17411745
ATOM   1745  O3' U   B   5      46.515 -13.032  -3.582  0.00  0.00    +0.000 OA
BRANCH17451748
ATOM   1746  C4' U   B   5      48.743 -12.617  -2.669  0.00  0.00    +0.000 C 
ATOM   1747  O4' U   B   5      49.633 -13.385  -1.819  0.00  0.00    +0.000 OA
ATOM   1748  C3' U   B   5      47.400 -13.302  -2.509  0.00  0.00    +0.000 C 
ATOM   1749  C2' U   B   5      47.797 -14.768  -2.408  0.00  0.00    +0.000 C 
ATOM   1750  C1' U   B   5      49.091 -14.670  -1.600  0.00  0.00    +0.000 C 
BRANCH17501751
ATOM   1751  N1  U   B   5      48.849 -14.843  -0.152  0.00  0.00    +0.000 N 
ATOM   1752  C2  U   B   5      48.755 -16.137   0.331  0.00  0.00    +0.000 A 
ATOM   1753  O2  U   B   5      48.860 -17.123  -0.383  0.00  0.00    +0.000 OA
ATOM   1754  N3  U   B   5      48.531 -16.239   1.685  0.00  0.00    +0.000 N 
ATOM   1755  C4  U   B   5      48.397 -15.202   2.588  0.00  0.00    +0.000 A 
ATOM   1756  O4  U   B   5      48.201 -15.454   3.778  0.00  0.00    +0.000 OA
ATOM   1757  C5  U   B   5      48.508 -13.899   2.012  0.00  0.00    +0.000 A 
ATOM   1758  C6  U   B   5      48.726 -13.769   0.693  0.00  0.00    +0.000 A 
ATOM   1759  H   U   B   5      48.458 -17.150   2.050  0.00  0.00    +0.000 HD
ENDBRANCH17501751
BRANCH17491760
ATOM   1760  O2' U   B   5      48.105 -15.311  -3.682  0.00  0.00    +0.000 OA
ATOM   1761  H   U   B   5      48.801 -14.780  -4.100  0.00  0.00    +0.000 HD
ENDBRANCH17491760
BRANCH17461762
ATOM   1762  C5' U   B   5      48.790 -11.162  -2.266  0.00  0.00    +0.000 C 
BRANCH17621763
ATOM   1763  O5' U   B   5      48.393 -10.979  -0.919  0.00  0.00    +0.000 OA
BRANCH17631764
ATOM   1764  P   U   B   5      48.677  -9.611  -0.163  0.00  0.00    +0.000 P 
ATOM   1765  OP1 U   B   5      48.174  -8.500  -1.002  0.00  0.00    +0.000 OA
BRANCH17641766
ATOM   1766  OP2 U   B   5      48.201  -9.752   1.242  0.00  0.00    +0.000 OA
ATOM   1767  H   U   B   5      47.233  -9.816   1.251  0.00  0.00    +0.000 HD
ENDBRANCH17641766
BRANCH17641768
ATOM   1768  O3' A   B   4      50.284  -9.509  -0.133  0.00  0.00    +0.000 OA
BRANCH17681771
ATOM   1769  C4' A   B   4      52.317  -9.669   1.217  0.00  0.00    +0.000 C 
ATOM   1770  O4' A   B   4      53.153 -10.781   1.623  0.00  0.00    +0.000 OA
ATOM   1771  C3' A   B   4      51.033 -10.328   0.749  0.00  0.00    +0.000 C 
ATOM   1772  C2' A   B   4      51.537 -11.608   0.100  0.00  0.00    +0.000 C 
ATOM   1773  C1' A   B   4      52.691 -11.977   1.026  0.00  0.00    +0.000 C 
BRANCH17731774
ATOM   1774  N9  A   B   4      52.268 -12.893   2.096  0.00  0.00    +0.000 N 
ATOM   1775  C8  A   B   4      51.914 -12.576   3.383  0.00  0.00    +0.000 A 
ATOM   1776  N7  A   B   4      51.583 -13.618   4.112  0.00  0.00    +0.000 NA
ATOM   1777  C5  A   B   4      51.731 -14.692   3.242  0.00  0.00    +0.000 A 
ATOM   1778  C6  A   B   4      51.540 -16.073   3.405  0.00  0.00    +0.000 A 
ATOM   1779  N6  A   B   4      51.132 -16.634   4.556  0.00  0.00    +0.000 N 
ATOM   1780  N1  A   B   4      51.773 -16.868   2.345  0.00  0.00    +0.000 NA
ATOM   1781  C2  A   B   4      52.177 -16.307   1.198  0.00  0.00    +0.000 A 
ATOM   1782  N3  A   B   4      52.396 -15.023   0.924  0.00  0.00    +0.000 NA
ATOM   1783  C4  A   B   4      52.149 -14.259   2.001  0.00  0.00    +0.000 A 
ATOM   1784  H   A   B   4      51.015 -17.610   4.614  0.00  0.00    +0.000 HD
ATOM   1785  H   A   B   4      50.951 -16.069   5.342  0.00  0.00    +0.000 HD
ENDBRANCH17731774
BRANCH17721786
ATOM   1786  O2' A   B   4      52.061 -11.361  -1.198  0.00  0.00    +0.000 OA
ATOM   1787  H   A   B   4      52.760 -10.690  -1.142  0.00  0.00    +0.000 HD
ENDBRANCH17721786
BRANCH17691788
ATOM   1788  C5' A   B   4      52.175  -8.702   2.363  0.00  0.00    +0.000 C 
BRANCH17881789
ATOM   1789  O5' A   B   4      51.595  -9.329   3.498  0.00  0.00    +0.000 OA
BRANCH17891790
ATOM   1790  P   A   B   4      51.706  -8.664   4.937  0.00  0.00    +0.000 P 
ATOM   1791  OP1 A   B   4      51.242  -7.258   4.833  0.00  0.00    +0.000 OA
BRANCH17901792
ATOM   1792  OP2 A   B   4      51.072  -9.582   5.922  0.00  0.00    +0.000 OA
ATOM   1793  H   A   B   4      50.115  -9.615   5.764  0.00  0.00    +0.000 HD
ENDBRANCH17901792
BRANCH17901794
ATOM   1794  O3' A   B   3      53.286  -8.632   5.224  0.00  0.00    +0.000 OA
BRANCH17941797
ATOM   1795  C4' A   B   3      55.127  -9.513   6.569  0.00  0.00    +0.000 C 
ATOM   1796  O4' A   B   3      55.965 -10.693   6.459  0.00  0.00    +0.000 OA
ATOM   1797  C3' A   B   3      53.956  -9.809   5.651  0.00  0.00    +0.000 C 
ATOM   1798  C2' A   B   3      54.611 -10.578   4.513  0.00  0.00    +0.000 C 
ATOM   1799  C1' A   B   3      55.665 -11.389   5.263  0.00  0.00    +0.000 C 
BRANCH17991800
ATOM   1800  N9  A   B   3      55.183 -12.734   5.618  0.00  0.00    +0.000 N 
ATOM   1801  C8  A   B   3      54.673 -13.157   6.820  0.00  0.00    +0.000 A 
ATOM   1802  N7  A   B   3      54.330 -14.423   6.832  0.00  0.00    +0.000 NA
ATOM   1803  C5  A   B   3      54.637 -14.863   5.551  0.00  0.00    +0.000 A 
ATOM   1804  C6  A   B   3      54.513 -16.115   4.924  0.00  0.00    +0.000 A 
ATOM   1805  N6  A   B   3      54.019 -17.204   5.534  0.00  0.00    +0.000 N 
ATOM   1806  N1  A   B   3      54.910 -16.213   3.642  0.00  0.00    +0.000 NA
ATOM   1807  C2  A   B   3      55.403 -15.126   3.030  0.00  0.00    +0.000 A 
ATOM   1808  N3  A   B   3      55.571 -13.901   3.514  0.00  0.00    +0.000 NA
ATOM   1809  C4  A   B   3      55.161 -13.835   4.795  0.00  0.00    +0.000 A 
ATOM   1810  H   A   B   3      53.956 -18.056   5.045  0.00  0.00    +0.000 HD
ATOM   1811  H   A   B   3      53.720 -17.151   6.471  0.00  0.00    +0.000 HD
ENDBRANCH17991800
BRANCH17981812
ATOM   1812  O2' A   B   3      55.275  -9.699   3.612  0.00  0.00    +0.000 OA
ATOM   1813  H   A   B   3      55.919  -9.162   4.100  0.00  0.00    +0.000 HD
ENDBRANCH17981812
BRANCH17951814
ATOM   1814  C5' A   B   3      54.784  -9.269   8.016  0.00  0.00    +0.000 C 
BRANCH18141815
ATOM   1815  O5' A   B   3      54.074 -10.370   8.571  0.00  0.00    +0.000 OA
BRANCH18151816
ATOM   1816  P   A   B   3      53.909 -10.518  10.145  0.00  0.00    +0.000 P 
ATOM   1817  OP2 A   B   3      53.174 -11.778  10.419  0.00  0.00    +0.000 OA
BRANCH18161818
ATOM   1818  OP1 A   B   3      53.399  -9.231  10.679  0.00  0.00    +0.000 OA
ATOM   1819  H   A   B   3      52.484  -9.099  10.385  0.00  0.00    +0.000 HD
ENDBRANCH18161818
BRANCH18161820
ATOM   1820  O3' U   B   2      55.423 -10.691  10.659  0.00  0.00    +0.000 OA
BRANCH18201823
ATOM   1821  C4' U   B   2      57.023 -12.231  11.680  0.00  0.00    +0.000 C 
ATOM   1822  O4' U   B   2      57.942 -13.217  11.143  0.00  0.00    +0.000 OA
ATOM   1823  C3' U   B   2      56.073 -11.949  10.531  0.00  0.00    +0.000 C 
ATOM   1824  C2' U   B   2      56.984 -12.041   9.315  0.00  0.00    +0.000 C 
ATOM   1825  C1' U   B   2      57.923 -13.173   9.730  0.00  0.00    +0.000 C 
BRANCH18251826
ATOM   1826  N1  U   B   2      57.463 -14.486   9.229  0.00  0.00    +0.000 N 
ATOM   1827  C2  U   B   2      57.736 -14.801   7.908  0.00  0.00    +0.000 A 
ATOM   1828  O2  U   B   2      58.330 -14.048   7.152  0.00  0.00    +0.000 OA
ATOM   1829  N3  U   B   2      57.289 -16.036   7.501  0.00  0.00    +0.000 N 
ATOM   1830  C4  U   B   2      56.610 -16.969   8.261  0.00  0.00    +0.000 A 
ATOM   1831  O4  U   B   2      56.274 -18.036   7.752  0.00  0.00    +0.000 OA
ATOM   1832  C5  U   B   2      56.368 -16.569   9.611  0.00  0.00    +0.000 A 
ATOM   1833  C6  U   B   2      56.794 -15.372  10.037  0.00  0.00    +0.000 A 
ATOM   1834  H   U   B   2      57.473 -16.282   6.566  0.00  0.00    +0.000 HD
ENDBRANCH18251826
BRANCH18241835
ATOM   1835  O2' U   B   2      57.753 -10.858   9.158  0.00  0.00    +0.000 OA
ATOM   1836  H   U   B   2      58.254 -10.688   9.971  0.00  0.00    +0.000 HD
ENDBRANCH18241835
BRANCH18211837
ATOM   1837  C5' U   B   2      56.384 -12.764  12.939  0.00  0.00    +0.000 C 
BRANCH18371838
ATOM   1838  O5' U   B   2      55.560 -13.893  12.662  0.00  0.00    +0.000 OA
BRANCH18381839
ATOM   1839  P   U   B   2      54.838 -14.688  13.834  0.00  0.00    +0.000 P 
ATOM   1840  OP2 U   B   2      54.056 -15.800  13.234  0.00  0.00    +0.000 OA
BRANCH18391841
ATOM   1841  OP1 U   B   2      54.164 -13.708  14.720  0.00  0.00    +0.000 OA
ATOM   1842  H   U   B   2      53.410 -13.315  14.253  0.00  0.00    +0.000 HD
ENDBRANCH18391841
BRANCH18391843
ATOM   1843  O3' C   B   1      56.109 -15.319  14.687  0.00  0.00    +0.000 OA
BRANCH18431846
ATOM   1844  C4' C   B   1      57.189 -17.418  15.287  0.00  0.00    +0.000 C 
ATOM   1845  O4' C   B   1      58.289 -18.175  14.724  0.00  0.00    +0.000 OA
ATOM   1846  C3' C   B   1      56.789 -16.465  14.183  0.00  0.00    +0.000 C 
ATOM   1847  C2' C   B   1      58.110 -16.138  13.529  0.00  0.00    +0.000 C 
ATOM   1848  C1' C   B   1      58.837 -17.474  13.629  0.00  0.00    +0.000 C 
BRANCH18481849
ATOM   1849  N1  C   B   1      58.685 -18.306  12.422  0.00  0.00    +0.000 N 
ATOM   1850  C2  C   B   1      59.404 -17.973  11.279  0.00  0.00    +0.000 A 
ATOM   1851  O2  C   B   1      60.149 -16.978  11.298  0.00  0.00    +0.000 OA
ATOM   1852  N3  C   B   1      59.279 -18.736  10.167  0.00  0.00    +0.000 NA
ATOM   1853  C4  C   B   1      58.472 -19.795  10.174  0.00  0.00    +0.000 A 
ATOM   1854  N4  C   B   1      58.385 -20.521   9.063  0.00  0.00    +0.000 N 
ATOM   1855  C5  C   B   1      57.726 -20.168  11.328  0.00  0.00    +0.000 A 
ATOM   1856  C6  C   B   1      57.864 -19.399  12.419  0.00  0.00    +0.000 A 
ATOM   1857  H   C   B   1      58.901 -20.263   8.265  0.00  0.00    +0.000 HD
ATOM   1858  H   C   B   1      57.805 -21.316   9.039  0.00  0.00    +0.000 HD
ENDBRANCH18481849
BRANCH18471859
ATOM   1859  O2' C   B   1      58.816 -15.176  14.273  0.00  0.00    +0.000 OA
ATOM   1860  H   C   B   1      58.931 -15.492  15.183  0.00  0.00    +0.000 HD
ENDBRANCH18471859
BRANCH18441861
ATOM   1861  C5' C   B   1      56.116 -18.372  15.731  0.00  0.00    +0.000 C 
BRANCH18611862
ATOM   1862  O5' C   B   1      55.651 -19.151  14.640  0.00  0.00    +0.000 OA
BRANCH18621863
ATOM   1863  P   C   B   1      54.239 -19.906  14.631  0.00  0.00    +0.000 P 
ATOM   1864  OP2 C   B   1      54.400 -21.008  13.616  0.00  0.00    +0.000 OA
BRANCH18631865
ATOM   1865  OP3 C   B   1      53.746 -20.247  15.252  0.00  0.00    +0.000 OA
ATOM   1866  H   C   B   1      52.945 -20.627  14.857  0.00  0.00    +0.000 HD
ENDBRANCH18631865
BRANCH18631867
ATOM   1867  OP1 C   B   1      53.194 -18.898  14.395  0.00  0.00    +0.000 OA
ATOM   1868  H   C   B   1      53.474 -18.303  13.682  0.00  0.00    +0.000 HD
ENDBRANCH18631867
ENDBRANCH18621863
ENDBRANCH18611862
ENDBRANCH18441861
ENDBRANCH18431846
ENDBRANCH18391843
ENDBRANCH18381839
ENDBRANCH18371838
ENDBRANCH18211837
ENDBRANCH18201823
ENDBRANCH18161820
ENDBRANCH18151816
ENDBRANCH18141815
ENDBRANCH17951814
ENDBRANCH17941797
ENDBRANCH17901794
ENDBRANCH17891790
ENDBRANCH17881789
ENDBRANCH17691788
ENDBRANCH17681771
ENDBRANCH17641768
ENDBRANCH17631764
ENDBRANCH17621763
ENDBRANCH17461762
ENDBRANCH17451748
ENDBRANCH17411745
ENDBRANCH17401741
ENDBRANCH17391740
ENDBRANCH17201739
ENDBRANCH17191722
ENDBRANCH17151719
ENDBRANCH17141715
ENDBRANCH17131714
ENDBRANCH16961713
ENDBRANCH16951698
ENDBRANCH16911695
ENDBRANCH16901691
ENDBRANCH16891690
ENDBRANCH16731689
ENDBRANCH16721675
ENDBRANCH16681672
ENDBRANCH16671668
ENDBRANCH16661667
ENDBRANCH16471666
ENDBRANCH16461649
ENDBRANCH16421646
ENDBRANCH16411642
ENDBRANCH16401641
ENDBRANCH16241640
ENDBRANCH16231626
ENDBRANCH16191623
ENDBRANCH16181619
ENDBRANCH16171618
ENDBRANCH16011617
ENDBRANCH16001603
ENDBRANCH15961600
ENDBRANCH15951596
ENDBRANCH15941595
ENDBRANCH15781594
ENDBRANCH15771580
ENDBRANCH15731577
ENDBRANCH15721573
ENDBRANCH15711572
ENDBRANCH15541571
ENDBRANCH15531556
ENDBRANCH15491553
ENDBRANCH15481549
ENDBRANCH15471548
ENDBRANCH15281547
ENDBRANCH15271530
ENDBRANCH15231527
ENDBRANCH15221523
ENDBRANCH15211522
ENDBRANCH15051521
ENDBRANCH15041507
ENDBRANCH15001504
ENDBRANCH14991500
ENDBRANCH14981499
ENDBRANCH14811498
ENDBRANCH14801483
ENDBRANCH14761480
ENDBRANCH14751476
ENDBRANCH14741475
ENDBRANCH14571474
ENDBRANCH14561459
ENDBRANCH14521456
ENDBRANCH14511452
ENDBRANCH14501451
ENDBRANCH14291450
ENDBRANCH14281431
ENDBRANCH14241428
ENDBRANCH14231424
ENDBRANCH14221423
ENDBRANCH14031422
ENDBRANCH14021405
ENDBRANCH13981402
ENDBRANCH13971398
ENDBRANCH13961397
ENDBRANCH13771396
ENDBRANCH13761379
ENDBRANCH13721376
ENDBRANCH13711372
ENDBRANCH13701371
ENDBRANCH13511370
ENDBRANCH13501353
ENDBRANCH13461350
ENDBRANCH13451346
ENDBRANCH13441345
ENDBRANCH13271344
ENDBRANCH13261329
ENDBRANCH13221326
ENDBRANCH13211322
ENDBRANCH13201321
ENDBRANCH13041320
ENDBRANCH13031306
ENDBRANCH12991303
ENDBRANCH12981299
ENDBRANCH12971298
ENDBRANCH12811297
ENDBRANCH12801283
ENDBRANCH12761280
ENDBRANCH12751276
ENDBRANCH12741275
ENDBRANCH12581274
ENDBRANCH12571260
ENDBRANCH12531257
ENDBRANCH12521253
ENDBRANCH12511252
ENDBRANCH12351251
ENDBRANCH12341237
ENDBRANCH12301234
ENDBRANCH12291230
ENDBRANCH12281229
ENDBRANCH12121228
ENDBRANCH12111214
ENDBRANCH12071211
ENDBRANCH12061207
ENDBRANCH12051206
ENDBRANCH11891205
ENDBRANCH11881191
ENDBRANCH11841188
ENDBRANCH11831184
ENDBRANCH11821183
ENDBRANCH11631182
ENDBRANCH11621165
ENDBRANCH11581162
ENDBRANCH11571158
ENDBRANCH11561157
ENDBRANCH11371156
ENDBRANCH11361139
ENDBRANCH11321136
ENDBRANCH11311132
ENDBRANCH11301131
ENDBRANCH11111130
ENDBRANCH11101113
ENDBRANCH11061110
ENDBRANCH11051106
ENDBRANCH11041105
ENDBRANCH10851104
ENDBRANCH10841087
ENDBRANCH10801084
ENDBRANCH10791080
ENDBRANCH10781079
ENDBRANCH10621078
ENDBRANCH10611064
ENDBRANCH10571061
ENDBRANCH10561057
ENDBRANCH10551056
ENDBRANCH10361055
ENDBRANCH10351038
ENDBRANCH10311035
ENDBRANCH10301031
ENDBRANCH10291030
ENDBRANCH10101029
ENDBRANCH10091012
ENDBRANCH10051009
ENDBRANCH10041005
ENDBRANCH10031004
ENDBRANCH 9871003
ENDBRANCH 986 989
ENDBRANCH 982 986
ENDBRANCH 981 982
ENDBRANCH 980 981
ENDBRANCH 961 980
ENDBRANCH 960 963
ENDBRANCH 956 960
ENDBRANCH 955 956
ENDBRANCH 954 955
ENDBRANCH 938 954
ENDBRANCH 937 940
ENDBRANCH   1 937
TORSDOF 624
