REMARK  Name = /storage/kiran-stuff/aaRS/phase2/energy_scoring/vina_182jobs/deep_cat_trp_TRP/ligand.h.pdb
REMARK  5 active torsions:
REMARK  status: ('A' for Active; 'I' for Inactive)
REMARK    1  A    between atoms: N_1  and  CA_2
REMARK    2  A    between atoms: CA_2  and  C_3
REMARK    3  A    between atoms: CA_2  and  CB_5
REMARK    4  A    between atoms: C_3  and  O_4
REMARK    5  A    between atoms: CB_5  and  CG_6
REMARK                            x       y       z     vdW  Elec       q    Type
REMARK                         _______ _______ _______ _____ _____    ______ ____
ROOT
ATOM      1  CB  TRP C   1     -11.294   8.320  10.221  0.00  0.00    +0.000 C 
ENDROOT
BRANCH   1   2
ATOM      2  CG  TRP C   1     -10.380   9.322  10.792  0.00  0.00    +0.000 C 
ATOM      3  CD1 TRP C   1      -9.445   9.112  11.736  0.00  0.00    +0.000 C 
ATOM      4  CD2 TRP C   1     -10.292  10.679  10.423  0.00  0.00    +0.000 A 
ATOM      5  NE1 TRP C   1      -8.779  10.246  11.964  0.00  0.00    +0.000 NA
ATOM      6  CE2 TRP C   1      -9.260  11.227  11.191  0.00  0.00    +0.000 A 
ATOM      7  CE3 TRP C   1     -10.973  11.462   9.533  0.00  0.00    +0.000 A 
ATOM      8  CZ2 TRP C   1      -8.896  12.549  11.070  0.00  0.00    +0.000 A 
ATOM      9  CZ3 TRP C   1     -10.618  12.771   9.411  0.00  0.00    +0.000 A 
ATOM     10  CH2 TRP C   1      -9.591  13.312  10.156  0.00  0.00    +0.000 A 
ENDBRANCH   1   2
BRANCH   1  11
ATOM     11  CA  TRP C   1     -12.439   7.964  11.176  0.00  0.00    +0.000 C 
BRANCH  11  12
ATOM     12  N   TRP C   1     -12.070   6.822  12.010  0.00  0.00    +0.000 NA
ATOM     13  H   TRP C   1     -11.240   7.054  12.556  0.00  0.00    +0.000 HD
ATOM     14  H   TRP C   1     -11.872   6.017  11.416  0.00  0.00    +0.000 HD
ENDBRANCH  11  12
BRANCH  11  15
ATOM     15  C   TRP C   1     -13.657   7.644  10.365  0.00  0.00    +0.000 C 
ATOM     16  OXT TRP C   1     -14.395   8.561   9.990  0.00  0.00    +0.000 OA
BRANCH  15  17
ATOM     17  O   TRP C   1     -13.893   6.474  10.038  0.00  0.00    +0.000 OA
ATOM     18  H   TRP C   1     -13.328   5.784  10.326  0.00  0.00    +0.000 HD
ENDBRANCH  15  17
ENDBRANCH  11  15
ENDBRANCH   1  11
TORSDOF 5
