REMARK  Name = /storage/kiran-stuff/aaRS/phase2/energy_scoring/vina_182jobs/deep_cat_trp_TRP/ligand.h.pdb
REMARK  5 active torsions:
REMARK  status: ('A' for Active; 'I' for Inactive)
REMARK    1  A    between atoms: N_1  and  CA_2
REMARK    2  A    between atoms: CA_2  and  C_3
REMARK    3  A    between atoms: CA_2  and  CB_5
REMARK    4  A    between atoms: C_3  and  O_4
REMARK    5  A    between atoms: CB_5  and  CG_6
REMARK                            x       y       z     vdW  Elec       q    Type
REMARK                         _______ _______ _______ _____ _____    ______ ____
ROOT
ATOM      1  CB  TRP C   1     -11.207   8.018  10.200  0.00  0.00    +0.000 C 
ENDROOT
BRANCH   1   2
ATOM      2  CG  TRP C   1     -10.418   9.169  10.667  0.00  0.00    +0.000 C 
ATOM      3  CD1 TRP C   1      -9.430   9.149  11.579  0.00  0.00    +0.000 C 
ATOM      4  CD2 TRP C   1     -10.529  10.497  10.212  0.00  0.00    +0.000 A 
ATOM      5  NE1 TRP C   1      -8.917  10.374  11.708  0.00  0.00    +0.000 NA
ATOM      6  CE2 TRP C   1      -9.554  11.228  10.898  0.00  0.00    +0.000 A 
ATOM      7  CE3 TRP C   1     -11.341  11.122   9.307  0.00  0.00    +0.000 A 
ATOM      8  CZ2 TRP C   1      -9.378  12.576  10.681  0.00  0.00    +0.000 A 
ATOM      9  CZ3 TRP C   1     -11.172  12.455   9.089  0.00  0.00    +0.000 A 
ATOM     10  CH2 TRP C   1     -10.203  13.177   9.753  0.00  0.00    +0.000 A 
ENDBRANCH   1   2
BRANCH   1  11
ATOM     11  CA  TRP C   1     -12.011   7.365  11.329  0.00  0.00    +0.000 C 
BRANCH  11  12
ATOM     12  N   TRP C   1     -11.115   6.864  12.369  0.00  0.00    +0.000 NA
ATOM     13  H   TRP C   1     -10.571   7.638  12.751  0.00  0.00    +0.000 HD
ATOM     14  H   TRP C   1     -10.484   6.170  11.969  0.00  0.00    +0.000 HD
ENDBRANCH  11  12
BRANCH  11  15
ATOM     15  C   TRP C   1     -12.820   6.243  10.754  0.00  0.00    +0.000 C 
ATOM     16  OXT TRP C   1     -13.922   6.484  10.251  0.00  0.00    +0.000 OA
BRANCH  15  17
ATOM     17  O   TRP C   1     -12.364   5.092  10.746  0.00  0.00    +0.000 OA
ATOM     18  H   TRP C   1     -11.527   4.917  11.130  0.00  0.00    +0.000 HD
ENDBRANCH  15  17
ENDBRANCH  11  15
ENDBRANCH   1  11
TORSDOF 5
