REMARK  Name = /storage/kiran-stuff/aaRS/phase2/energy_scoring/gromacs_4systems/systemA_thrrs_THR/ligand_chain.h.pdb
REMARK  6 active torsions:
REMARK  status: ('A' for Active; 'I' for Inactive)
REMARK    1  A    between atoms: N_1  and  CA_2
REMARK    2  A    between atoms: CA_2  and  C_3
REMARK    3  A    between atoms: CA_2  and  CB_5
REMARK    4  A    between atoms: C_3  and  OXT_8
REMARK    5  A    between atoms: CB_5  and  OG1_6
REMARK    6  A    between atoms: CB_5  and  CG2_7
REMARK                            x       y       z     vdW  Elec       q    Type
REMARK                         _______ _______ _______ _____ _____    ______ ____
ROOT
ATOM      1  CA  THR B   1     -12.321   0.149  11.435  0.00  0.00    +0.000 C 
ENDROOT
BRANCH   1   2
ATOM      2  N   THR B   1     -12.616  -0.945  12.361  0.00  0.00    +0.000 NA
ATOM      3  H   THR B   1     -13.619  -0.974  12.544  0.00  0.00    +0.000 HD
ATOM      4  H   THR B   1     -12.115  -0.794  13.236  0.00  0.00    +0.000 HD
ENDBRANCH   1   2
BRANCH   1   5
ATOM      5  C   THR B   1     -13.110  -0.028  10.163  0.00  0.00    +0.000 C 
ATOM      6  O   THR B   1     -13.417   0.964   9.478  0.00  0.00    +0.000 OA
BRANCH   5   7
ATOM      7  OXT THR B   1     -13.407  -1.184   9.806  0.00  0.00    +0.000 OA
ATOM      8  H   THR B   1     -13.165  -1.916  10.339  0.00  0.00    +0.000 HD
ENDBRANCH   5   7
ENDBRANCH   1   5
BRANCH   1   9
ATOM      9  CB  THR B   1     -10.833   0.220  11.141  0.00  0.00    +0.000 C 
ATOM     10  CG2 THR B   1     -10.451   1.529  10.483  0.00  0.00    +0.000 C 
BRANCH   9  11
ATOM     11  OG1 THR B   1     -10.090   0.075  12.344  0.00  0.00    +0.000 OA
ATOM     12  H   THR B   1     -10.306   0.804  12.947  0.00  0.00    +0.000 HD
ENDBRANCH   9  11
ENDBRANCH   1   9
TORSDOF 5
