REMARK  Name = /storage/kiran-stuff/aaRS/phase2/energy_scoring/vina_182jobs/modern_ecoli_thrrs_ser_SER/ligand.h.pdb
REMARK  5 active torsions:
REMARK  status: ('A' for Active; 'I' for Inactive)
REMARK    1  A    between atoms: N_1  and  CA_2
REMARK    2  A    between atoms: CA_2  and  C_3
REMARK    3  A    between atoms: CA_2  and  CB_5
REMARK    4  A    between atoms: C_3  and  OXT_7
REMARK    5  A    between atoms: CB_5  and  OG_6
REMARK                            x       y       z     vdW  Elec       q    Type
REMARK                         _______ _______ _______ _____ _____    ______ ____
ROOT
ATOM      1  CA  SER B   1       2.390  16.766  -7.196  0.00  0.00    +0.000 C 
ENDROOT
BRANCH   1   2
ATOM      2  N   SER B   1       3.200  16.329  -6.065  0.00  0.00    +0.000 NA
ATOM      3  H   SER B   1       3.686  15.466  -6.308  0.00  0.00    +0.000 HD
ATOM      4  H   SER B   1       2.598  16.164  -5.259  0.00  0.00    +0.000 HD
ENDBRANCH   1   2
BRANCH   1   5
ATOM      5  C   SER B   1       3.237  16.948  -8.445  0.00  0.00    +0.000 C 
ATOM      6  O   SER B   1       2.802  16.602  -9.546  0.00  0.00    +0.000 OA
BRANCH   5   7
ATOM      7  OXT SER B   1       4.346  17.453  -8.357  0.00  0.00    +0.000 OA
ATOM      8  H   SER B   1       4.676  17.716  -7.521  0.00  0.00    +0.000 HD
ENDBRANCH   5   7
ENDBRANCH   1   5
BRANCH   1   9
ATOM      9  CB  SER B   1       1.679  18.042  -6.819  0.00  0.00    +0.000 C 
BRANCH   9  10
ATOM     10  OG  SER B   1       2.416  18.810  -5.890  0.00  0.00    +0.000 OA
ATOM     11  H   SER B   1       2.537  18.300  -5.073  0.00  0.00    +0.000 HD
ENDBRANCH   9  10
ENDBRANCH   1   9
TORSDOF 5
