REMARK  Name = /storage/kiran-stuff/aaRS/phase2/energy_scoring/vina_182jobs/modern_ecoli_thrrs_ser_SER/ligand.h.pdb
REMARK  5 active torsions:
REMARK  status: ('A' for Active; 'I' for Inactive)
REMARK    1  A    between atoms: N_1  and  CA_2
REMARK    2  A    between atoms: CA_2  and  C_3
REMARK    3  A    between atoms: CA_2  and  CB_5
REMARK    4  A    between atoms: C_3  and  OXT_7
REMARK    5  A    between atoms: CB_5  and  OG_6
REMARK                            x       y       z     vdW  Elec       q    Type
REMARK                         _______ _______ _______ _____ _____    ______ ____
ROOT
ATOM      1  CA  SER B   1       1.875  17.282  -6.616  0.00  0.00    +0.000 C 
ENDROOT
BRANCH   1   2
ATOM      2  N   SER B   1       2.730  17.629  -5.487  0.00  0.00    +0.000 NA
ATOM      3  H   SER B   1       3.465  16.929  -5.389  0.00  0.00    +0.000 HD
ATOM      4  H   SER B   1       2.172  17.657  -4.634  0.00  0.00    +0.000 HD
ENDBRANCH   1   2
BRANCH   1   5
ATOM      5  C   SER B   1       2.680  17.151  -7.899  0.00  0.00    +0.000 C 
ATOM      6  O   SER B   1       2.110  16.917  -8.967  0.00  0.00    +0.000 OA
BRANCH   5   7
ATOM      7  OXT SER B   1       3.893  17.293  -7.871  0.00  0.00    +0.000 OA
ATOM      8  H   SER B   1       4.325  17.471  -7.059  0.00  0.00    +0.000 HD
ENDBRANCH   5   7
ENDBRANCH   1   5
BRANCH   1   9
ATOM      9  CB  SER B   1       0.795  18.327  -6.745  0.00  0.00    +0.000 C 
BRANCH   9  10
ATOM     10  OG  SER B   1       1.298  19.638  -6.595  0.00  0.00    +0.000 OA
ATOM     11  H   SER B   1       1.684  19.737  -5.710  0.00  0.00    +0.000 HD
ENDBRANCH   9  10
ENDBRANCH   1   9
TORSDOF 5
