REMARK  Name = /storage/kiran-stuff/aaRS/phase2/energy_scoring/vina_182jobs/modern_thrrs_ecoli_zn_CYS_CYS/ligand.h.pdb
REMARK  5 active torsions:
REMARK  status: ('A' for Active; 'I' for Inactive)
REMARK    1  A    between atoms: N_1  and  CA_2
REMARK    2  A    between atoms: CA_2  and  C_3
REMARK    3  A    between atoms: CA_2  and  CB_5
REMARK    4  A    between atoms: C_3  and  O_4
REMARK    5  A    between atoms: CB_5  and  SG_6
REMARK                            x       y       z     vdW  Elec       q    Type
REMARK                         _______ _______ _______ _____ _____    ______ ____
ROOT
ATOM      1  CA  CYS B   1      -2.332  -1.702  11.856  0.00  0.00    +0.000 C 
ENDROOT
BRANCH   1   2
ATOM      2  N   CYS B   1      -1.603  -2.712  12.614  0.00  0.00    +0.000 NA
ATOM      3  H   CYS B   1      -2.265  -3.309  13.110  0.00  0.00    +0.000 HD
ATOM      4  H   CYS B   1      -0.988  -2.254  13.287  0.00  0.00    +0.000 HD
ENDBRANCH   1   2
BRANCH   1   5
ATOM      5  C   CYS B   1      -3.284  -2.349  10.858  0.00  0.00    +0.000 C 
ATOM      6  OXT CYS B   1      -4.023  -1.622  10.165  0.00  0.00    +0.000 OA
BRANCH   5   7
ATOM      7  O   CYS B   1      -3.303  -3.563  10.715  0.00  0.00    +0.000 OA
ATOM      8  H   CYS B   1      -2.746  -4.105  11.238  0.00  0.00    +0.000 HD
ENDBRANCH   5   7
ENDBRANCH   1   5
BRANCH   1   9
ATOM      9  CB  CYS B   1      -1.348  -0.813  11.117  0.00  0.00    +0.000 C 
BRANCH   9  10
ATOM     10  SG  CYS B   1       0.289  -1.460  10.864  0.00  0.00    +0.000 S 
ATOM     11  H   CYS B   1       0.224  -2.559  10.065  0.00  0.00    +0.000 HD
ENDBRANCH   9  10
ENDBRANCH   1   9
TORSDOF 5
