REMARK  Name = /storage/kiran-stuff/aaRS/phase2/energy_scoring/vina_182jobs/modern_ecoli_full_ser_SER/ligand.h.pdb
REMARK  5 active torsions:
REMARK  status: ('A' for Active; 'I' for Inactive)
REMARK    1  A    between atoms: N_1  and  CA_2
REMARK    2  A    between atoms: CA_2  and  C_3
REMARK    3  A    between atoms: CA_2  and  CB_5
REMARK    4  A    between atoms: C_3  and  OXT_7
REMARK    5  A    between atoms: CB_5  and  OG_6
REMARK                            x       y       z     vdW  Elec       q    Type
REMARK                         _______ _______ _______ _____ _____    ______ ____
ROOT
ATOM      1  CA  SER B   1      -1.694  -3.841  -9.030  0.00  0.00    +0.000 C 
ENDROOT
BRANCH   1   2
ATOM      2  N   SER B   1      -1.197  -4.309 -10.323  0.00  0.00    +0.000 NA
ATOM      3  H   SER B   1      -1.117  -3.519 -10.963  0.00  0.00    +0.000 HD
ATOM      4  H   SER B   1      -1.846  -4.994 -10.709  0.00  0.00    +0.000 HD
ENDBRANCH   1   2
BRANCH   1   5
ATOM      5  C   SER B   1      -0.771  -2.791  -8.430  0.00  0.00    +0.000 C 
ATOM      6  O   SER B   1       0.303  -2.509  -8.970  0.00  0.00    +0.000 OA
BRANCH   5   7
ATOM      7  OXT SER B   1      -1.108  -2.238  -7.366  0.00  0.00    +0.000 OA
ATOM      8  H   SER B   1      -1.925  -2.457  -6.962  0.00  0.00    +0.000 HD
ENDBRANCH   5   7
ENDBRANCH   1   5
BRANCH   1   9
ATOM      9  CB  SER B   1      -1.817  -5.018  -8.066  0.00  0.00    +0.000 C 
BRANCH   9  10
ATOM     10  OG  SER B   1      -2.058  -6.234  -8.720  0.00  0.00    +0.000 OA
ATOM     11  H   SER B   1      -2.900  -6.182  -9.199  0.00  0.00    +0.000 HD
ENDBRANCH   9  10
ENDBRANCH   1   9
TORSDOF 5
