REMARK  Name = /storage/kiran-stuff/aaRS/phase2/energy_scoring/vina_182jobs/modern_ecoli_full_ser_SER/ligand.h.pdb
REMARK  5 active torsions:
REMARK  status: ('A' for Active; 'I' for Inactive)
REMARK    1  A    between atoms: N_1  and  CA_2
REMARK    2  A    between atoms: CA_2  and  C_3
REMARK    3  A    between atoms: CA_2  and  CB_5
REMARK    4  A    between atoms: C_3  and  OXT_7
REMARK    5  A    between atoms: CB_5  and  OG_6
REMARK                            x       y       z     vdW  Elec       q    Type
REMARK                         _______ _______ _______ _____ _____    ______ ____
ROOT
ATOM      1  CA  SER B   1      -1.618  -3.804  -9.275  0.00  0.00    +0.000 C 
ENDROOT
BRANCH   1   2
ATOM      2  N   SER B   1      -0.803  -4.763 -10.019  0.00  0.00    +0.000 NA
ATOM      3  H   SER B   1      -0.296  -4.278 -10.759  0.00  0.00    +0.000 HD
ATOM      4  H   SER B   1      -1.406  -5.475 -10.431  0.00  0.00    +0.000 HD
ENDBRANCH   1   2
BRANCH   1   5
ATOM      5  C   SER B   1      -0.761  -2.704  -8.668  0.00  0.00    +0.000 C 
ATOM      6  O   SER B   1       0.453  -2.652  -8.888  0.00  0.00    +0.000 OA
BRANCH   5   7
ATOM      7  OXT SER B   1      -1.304  -1.868  -7.921  0.00  0.00    +0.000 OA
ATOM      8  H   SER B   1      -2.226  -1.914  -7.758  0.00  0.00    +0.000 HD
ENDBRANCH   5   7
ENDBRANCH   1   5
BRANCH   1   9
ATOM      9  CB  SER B   1      -2.381  -4.523  -8.166  0.00  0.00    +0.000 C 
BRANCH   9  10
ATOM     10  OG  SER B   1      -2.479  -5.905  -8.381  0.00  0.00    +0.000 OA
ATOM     11  H   SER B   1      -2.968  -6.070  -9.202  0.00  0.00    +0.000 HD
ENDBRANCH   9  10
ENDBRANCH   1   9
TORSDOF 5
