REMARK  Name = /storage/kiran-stuff/aaRS/phase2/energy_scoring/vina_182jobs/anc_prors_cat_CYS_CYS/ligand.h.pdb
REMARK  5 active torsions:
REMARK  status: ('A' for Active; 'I' for Inactive)
REMARK    1  A    between atoms: N_1  and  CA_2
REMARK    2  A    between atoms: CA_2  and  C_3
REMARK    3  A    between atoms: CA_2  and  CB_5
REMARK    4  A    between atoms: C_3  and  O_4
REMARK    5  A    between atoms: CB_5  and  SG_6
REMARK                            x       y       z     vdW  Elec       q    Type
REMARK                         _______ _______ _______ _____ _____    ______ ____
ROOT
ATOM      1  CA  CYS B   1      10.005  -6.249 -11.521  0.00  0.00    +0.000 C 
ENDROOT
BRANCH   1   2
ATOM      2  N   CYS B   1       8.774  -6.852 -11.024  0.00  0.00    +0.000 NA
ATOM      3  H   CYS B   1       8.682  -7.796 -11.400  0.00  0.00    +0.000 HD
ATOM      4  H   CYS B   1       7.976  -6.289 -11.320  0.00  0.00    +0.000 HD
ENDBRANCH   1   2
BRANCH   1   5
ATOM      5  C   CYS B   1      10.209  -4.850 -11.007  0.00  0.00    +0.000 C 
ATOM      6  OXT CYS B   1      11.311  -4.315 -11.194  0.00  0.00    +0.000 OA
BRANCH   5   7
ATOM      7  O   CYS B   1       9.310  -4.252 -10.434  0.00  0.00    +0.000 OA
ATOM      8  H   CYS B   1       8.482  -4.669 -10.299  0.00  0.00    +0.000 HD
ENDBRANCH   5   7
ENDBRANCH   1   5
BRANCH   1   9
ATOM      9  CB  CYS B   1       9.941  -6.210 -13.032  0.00  0.00    +0.000 C 
BRANCH   9  10
ATOM     10  SG  CYS B   1      11.544  -6.207 -13.822  0.00  0.00    +0.000 S 
ATOM     11  H   CYS B   1      12.203  -7.356 -13.514  0.00  0.00    +0.000 HD
ENDBRANCH   9  10
ENDBRANCH   1   9
TORSDOF 5
