REMARK  Name = /storage/kiran-stuff/aaRS/phase2/energy_scoring/vina_182jobs/anc_prors_cat_CYS_CYS/ligand.h.pdb
REMARK  5 active torsions:
REMARK  status: ('A' for Active; 'I' for Inactive)
REMARK    1  A    between atoms: N_1  and  CA_2
REMARK    2  A    between atoms: CA_2  and  C_3
REMARK    3  A    between atoms: CA_2  and  CB_5
REMARK    4  A    between atoms: C_3  and  O_4
REMARK    5  A    between atoms: CB_5  and  SG_6
REMARK                            x       y       z     vdW  Elec       q    Type
REMARK                         _______ _______ _______ _____ _____    ______ ____
ROOT
ATOM      1  CA  CYS B   1       9.363  -4.518  -9.863  0.00  0.00    +0.000 C 
ENDROOT
BRANCH   1   2
ATOM      2  N   CYS B   1      10.145  -4.646 -11.086  0.00  0.00    +0.000 NA
ATOM      3  H   CYS B   1      10.602  -3.757 -11.293  0.00  0.00    +0.000 HD
ATOM      4  H   CYS B   1       9.529  -4.899 -11.859  0.00  0.00    +0.000 HD
ENDBRANCH   1   2
BRANCH   1   5
ATOM      5  C   CYS B   1       8.658  -5.795  -9.494  0.00  0.00    +0.000 C 
ATOM      6  OXT CYS B   1       8.363  -5.975  -8.304  0.00  0.00    +0.000 OA
BRANCH   5   7
ATOM      7  O   CYS B   1       8.372  -6.625 -10.344  0.00  0.00    +0.000 OA
ATOM      8  H   CYS B   1       8.603  -6.476 -11.240  0.00  0.00    +0.000 HD
ENDBRANCH   5   7
ENDBRANCH   1   5
BRANCH   1   9
ATOM      9  CB  CYS B   1       8.331  -3.431 -10.068  0.00  0.00    +0.000 C 
BRANCH   9  10
ATOM     10  SG  CYS B   1       7.748  -2.694  -8.548  0.00  0.00    +0.000 S 
ATOM     11  H   CYS B   1       8.787  -2.094  -7.907  0.00  0.00    +0.000 HD
ENDBRANCH   9  10
ENDBRANCH   1   9
TORSDOF 5
