REMARK  Name = /storage/kiran-stuff/aaRS/phase2/energy_scoring/vina_182jobs/anc_thrrs_cat_MET_MET/ligand.h.pdb
REMARK  7 active torsions:
REMARK  status: ('A' for Active; 'I' for Inactive)
REMARK    1  A    between atoms: N_1  and  CA_2
REMARK    2  A    between atoms: CA_2  and  C_3
REMARK    3  A    between atoms: CA_2  and  CB_5
REMARK    4  A    between atoms: C_3  and  O_4
REMARK    5  A    between atoms: CB_5  and  CG_6
REMARK    6  A    between atoms: CG_6  and  SD_7
REMARK    7  A    between atoms: SD_7  and  CE_8
REMARK                            x       y       z     vdW  Elec       q    Type
REMARK                         _______ _______ _______ _____ _____    ______ ____
ROOT
ATOM      1  CA  MET B   1      -2.913  -1.342   7.112  0.00  0.00    +0.000 C 
ENDROOT
BRANCH   1   2
ATOM      2  N   MET B   1      -4.057  -0.992   6.293  0.00  0.00    +0.000 NA
ATOM      3  H   MET B   1      -3.783  -0.988   5.310  0.00  0.00    +0.000 HD
ATOM      4  H   MET B   1      -4.393  -0.066   6.556  0.00  0.00    +0.000 HD
ENDBRANCH   1   2
BRANCH   1   5
ATOM      5  C   MET B   1      -3.288  -1.357   8.583  0.00  0.00    +0.000 C 
ATOM      6  OXT MET B   1      -4.026  -0.482   9.025  0.00  0.00    +0.000 OA
BRANCH   5   7
ATOM      7  O   MET B   1      -2.835  -2.249   9.322  0.00  0.00    +0.000 OA
ATOM      8  H   MET B   1      -2.273  -2.910   8.968  0.00  0.00    +0.000 HD
ENDBRANCH   5   7
ENDBRANCH   1   5
BRANCH   1   9
ATOM      9  CB  MET B   1      -1.771  -0.381   6.896  0.00  0.00    +0.000 C 
BRANCH   9  10
ATOM     10  CG  MET B   1      -2.082   0.862   6.119  0.00  0.00    +0.000 C 
BRANCH  10  11
ATOM     11  SD  MET B   1      -0.609   1.777   5.712  0.00  0.00    +0.000 S 
ATOM     12  CE  MET B   1      -1.308   3.343   5.294  0.00  0.00    +0.000 C 
ENDBRANCH  10  11
ENDBRANCH   9  10
ENDBRANCH   1   9
TORSDOF 6
