REMARK  Name = /storage/kiran-stuff/aaRS/phase2/energy_scoring/vina_182jobs/anc_thrrs_cat_MET_MET/ligand.h.pdb
REMARK  7 active torsions:
REMARK  status: ('A' for Active; 'I' for Inactive)
REMARK    1  A    between atoms: N_1  and  CA_2
REMARK    2  A    between atoms: CA_2  and  C_3
REMARK    3  A    between atoms: CA_2  and  CB_5
REMARK    4  A    between atoms: C_3  and  O_4
REMARK    5  A    between atoms: CB_5  and  CG_6
REMARK    6  A    between atoms: CG_6  and  SD_7
REMARK    7  A    between atoms: SD_7  and  CE_8
REMARK                            x       y       z     vdW  Elec       q    Type
REMARK                         _______ _______ _______ _____ _____    ______ ____
ROOT
ATOM      1  CA  MET B   1      -3.219  -1.490   7.517  0.00  0.00    +0.000 C 
ENDROOT
BRANCH   1   2
ATOM      2  N   MET B   1      -3.837  -1.499   6.206  0.00  0.00    +0.000 NA
ATOM      3  H   MET B   1      -3.112  -1.509   5.488  0.00  0.00    +0.000 HD
ATOM      4  H   MET B   1      -4.414  -0.665   6.096  0.00  0.00    +0.000 HD
ENDBRANCH   1   2
BRANCH   1   5
ATOM      5  C   MET B   1      -4.273  -1.476   8.609  0.00  0.00    +0.000 C 
ATOM      6  OXT MET B   1      -5.269  -0.772   8.476  0.00  0.00    +0.000 OA
BRANCH   5   7
ATOM      7  O   MET B   1      -4.109  -2.170   9.629  0.00  0.00    +0.000 OA
ATOM      8  H   MET B   1      -3.342  -2.702   9.715  0.00  0.00    +0.000 HD
ENDBRANCH   5   7
ENDBRANCH   1   5
BRANCH   1   9
ATOM      9  CB  MET B   1      -2.308  -0.300   7.684  0.00  0.00    +0.000 C 
BRANCH   9  10
ATOM     10  CG  MET B   1      -2.158   0.599   6.495  0.00  0.00    +0.000 C 
BRANCH  10  11
ATOM     11  SD  MET B   1      -0.642   1.531   6.553  0.00  0.00    +0.000 S 
ATOM     12  CE  MET B   1      -0.888   2.631   5.195  0.00  0.00    +0.000 C 
ENDBRANCH  10  11
ENDBRANCH   9  10
ENDBRANCH   1   9
TORSDOF 6
