REMARK  Name = /storage/kiran-stuff/aaRS/phase2/energy_scoring/vina_182jobs/modern_prors_TYR_TYR/ligand.h.pdb
REMARK  6 active torsions:
REMARK  status: ('A' for Active; 'I' for Inactive)
REMARK    1  A    between atoms: N_1  and  CA_2
REMARK    2  A    between atoms: CA_2  and  C_3
REMARK    3  A    between atoms: CA_2  and  CB_5
REMARK    4  A    between atoms: C_3  and  OXT_13
REMARK    5  A    between atoms: CB_5  and  CG_6
REMARK    6  A    between atoms: CZ_11  and  OH_12
REMARK                            x       y       z     vdW  Elec       q    Type
REMARK                         _______ _______ _______ _____ _____    ______ ____
ROOT
ATOM      1  CB  TYR B   1     -11.295   6.825  -0.439  0.00  0.00    +0.000 C 
ENDROOT
BRANCH   1   2
ATOM      2  CG  TYR B   1     -10.013   6.239   0.014  0.00  0.00    +0.000 A 
ATOM      3  CD1 TYR B   1     -10.012   5.255   1.005  0.00  0.00    +0.000 A 
ATOM      4  CD2 TYR B   1      -8.782   6.655  -0.500  0.00  0.00    +0.000 A 
ATOM      5  CE1 TYR B   1      -8.814   4.690   1.455  0.00  0.00    +0.000 A 
ATOM      6  CE2 TYR B   1      -7.587   6.095  -0.048  0.00  0.00    +0.000 A 
ATOM      7  CZ  TYR B   1      -7.588   5.111   0.929  0.00  0.00    +0.000 A 
BRANCH   7   8
ATOM      8  OH  TYR B   1      -6.417   4.565   1.377  0.00  0.00    +0.000 OA
ATOM      9  H   TYR B   1      -5.600   4.853   1.020  0.00  0.00    +0.000 HD
ENDBRANCH   7   8
ENDBRANCH   1   2
BRANCH   1  10
ATOM     10  CA  TYR B   1     -11.791   8.080   0.270  0.00  0.00    +0.000 C 
BRANCH  10  11
ATOM     11  N   TYR B   1     -11.265   9.226  -0.486  0.00  0.00    +0.000 NA
ATOM     12  H   TYR B   1     -11.560   9.154  -1.459  0.00  0.00    +0.000 HD
ATOM     13  H   TYR B   1     -10.247   9.227  -0.438  0.00  0.00    +0.000 HD
ENDBRANCH  10  11
BRANCH  10  14
ATOM     14  C   TYR B   1     -11.331   8.224   1.711  0.00  0.00    +0.000 C 
ATOM     15  O   TYR B   1     -10.358   8.937   1.993  0.00  0.00    +0.000 OA
BRANCH  14  16
ATOM     16  OXT TYR B   1     -11.952   7.657   2.614  0.00  0.00    +0.000 OA
ATOM     17  H   TYR B   1     -12.688   7.116   2.408  0.00  0.00    +0.000 HD
ENDBRANCH  14  16
ENDBRANCH  10  14
ENDBRANCH   1  10
TORSDOF 6
