REMARK  Name = /storage/kiran-stuff/aaRS/phase2/energy_scoring/vina_182jobs/deep_catalytic_phe_PHE/ligand.h.pdb
REMARK  5 active torsions:
REMARK  status: ('A' for Active; 'I' for Inactive)
REMARK    1  A    between atoms: N_1  and  CA_2
REMARK    2  A    between atoms: CA_2  and  C_3
REMARK    3  A    between atoms: CA_2  and  CB_5
REMARK    4  A    between atoms: C_3  and  OXT_12
REMARK    5  A    between atoms: CB_5  and  CG_6
REMARK                            x       y       z     vdW  Elec       q    Type
REMARK                         _______ _______ _______ _____ _____    ______ ____
ROOT
ATOM      1  CA  PHE C   1     -21.447   7.896  -7.202  0.00  0.00    +0.000 C 
ENDROOT
BRANCH   1   2
ATOM      2  N   PHE C   1     -22.880   8.119  -7.389  0.00  0.00    +0.000 NA
ATOM      3  H   PHE C   1     -23.135   7.901  -8.352  0.00  0.00    +0.000 HD
ATOM      4  H   PHE C   1     -23.101   9.095  -7.191  0.00  0.00    +0.000 HD
ENDBRANCH   1   2
BRANCH   1   5
ATOM      5  C   PHE C   1     -21.135   6.455  -7.579  0.00  0.00    +0.000 C 
ATOM      6  O   PHE C   1     -21.738   5.941  -8.532  0.00  0.00    +0.000 OA
BRANCH   5   7
ATOM      7  OXT PHE C   1     -20.328   5.778  -6.974  0.00  0.00    +0.000 OA
ATOM      8  H   PHE C   1     -19.859   6.143  -6.249  0.00  0.00    +0.000 HD
ENDBRANCH   5   7
ENDBRANCH   1   5
BRANCH   1   9
ATOM      9  CB  PHE C   1     -21.120   8.231  -5.768  0.00  0.00    +0.000 C 
BRANCH   9  10
ATOM     10  CG  PHE C   1     -19.853   9.021  -5.518  0.00  0.00    +0.000 A 
ATOM     11  CD1 PHE C   1     -19.260   8.949  -4.272  0.00  0.00    +0.000 A 
ATOM     12  CD2 PHE C   1     -19.271   9.802  -6.497  0.00  0.00    +0.000 A 
ATOM     13  CE1 PHE C   1     -18.093   9.643  -4.026  0.00  0.00    +0.000 A 
ATOM     14  CE2 PHE C   1     -18.108  10.493  -6.229  0.00  0.00    +0.000 A 
ATOM     15  CZ  PHE C   1     -17.507  10.422  -5.000  0.00  0.00    +0.000 A 
ENDBRANCH   9  10
ENDBRANCH   1   9
TORSDOF 5
