REMARK  Name = /storage/kiran-stuff/aaRS/phase2/energy_scoring/vina_182jobs/COMPETITION_FULL_anc_prors_PRO_vs_GLU_PRO/ligand.h.pdb
REMARK  7 active torsions:
REMARK  status: ('A' for Active; 'I' for Inactive)
REMARK    1  A    between atoms: N_1  and  CA_2
REMARK    2  A    between atoms: CA_2  and  C_3
REMARK    3  A    between atoms: CA_2  and  CB_5
REMARK    4  A    between atoms: C_3  and  O_4
REMARK    5  A    between atoms: CB_5  and  CG_6
REMARK    6  A    between atoms: CG_6  and  CD_7
REMARK    7  A    between atoms: CD_7  and  OE2_9
REMARK                            x       y       z     vdW  Elec       q    Type
REMARK                         _______ _______ _______ _____ _____    ______ ____
ROOT
ATOM      1  CA  GLU B   1     -15.157  11.993 -14.747  0.00  0.00    +0.000 C 
ENDROOT
BRANCH   1   2
ATOM      2  N   GLU B   1     -16.389  11.299 -15.089  0.00  0.00    +0.000 NA
ATOM      3  H   GLU B   1     -17.188  11.888 -14.851  0.00  0.00    +0.000 HD
ATOM      4  H   GLU B   1     -16.442  10.425 -14.566  0.00  0.00    +0.000 HD
ENDBRANCH   1   2
BRANCH   1   5
ATOM      5  C   GLU B   1     -15.125  13.331 -15.464  0.00  0.00    +0.000 C 
ATOM      6  OXT GLU B   1     -15.741  13.453 -16.511  0.00  0.00    +0.000 OA
BRANCH   5   7
ATOM      7  O   GLU B   1     -14.486  14.281 -15.021  0.00  0.00    +0.000 OA
ATOM      8  H   GLU B   1     -14.012  14.192 -14.217  0.00  0.00    +0.000 HD
ENDBRANCH   5   7
ENDBRANCH   1   5
BRANCH   1   9
ATOM      9  CB  GLU B   1     -13.945  11.169 -15.078  0.00  0.00    +0.000 C 
BRANCH   9  10
ATOM     10  CG  GLU B   1     -12.739  12.024 -15.275  0.00  0.00    +0.000 C 
BRANCH  10  11
ATOM     11  CD  GLU B   1     -11.886  12.111 -14.041  0.00  0.00    +0.000 C 
ATOM     12  OE1 GLU B   1     -10.969  11.273 -13.900  0.00  0.00    +0.000 OA
BRANCH  11  13
ATOM     13  OE2 GLU B   1     -12.099  13.006 -13.222  0.00  0.00    +0.000 OA
ATOM     14  H   GLU B   1     -12.796  13.615 -13.364  0.00  0.00    +0.000 HD
ENDBRANCH  11  13
ENDBRANCH  10  11
ENDBRANCH   9  10
ENDBRANCH   1   9
TORSDOF 7
