REMARK  Name = /storage/kiran-stuff/aaRS/phase2/energy_scoring/vina_182jobs/COMPETITION_FULL_anc_prors_PRO_vs_GLU_PRO/ligand.h.pdb
REMARK  7 active torsions:
REMARK  status: ('A' for Active; 'I' for Inactive)
REMARK    1  A    between atoms: N_1  and  CA_2
REMARK    2  A    between atoms: CA_2  and  C_3
REMARK    3  A    between atoms: CA_2  and  CB_5
REMARK    4  A    between atoms: C_3  and  O_4
REMARK    5  A    between atoms: CB_5  and  CG_6
REMARK    6  A    between atoms: CG_6  and  CD_7
REMARK    7  A    between atoms: CD_7  and  OE2_9
REMARK                            x       y       z     vdW  Elec       q    Type
REMARK                         _______ _______ _______ _____ _____    ______ ____
ROOT
ATOM      1  CA  GLU B   1     -15.087  11.696 -14.709  0.00  0.00    +0.000 C 
ENDROOT
BRANCH   1   2
ATOM      2  N   GLU B   1     -16.080  10.771 -15.231  0.00  0.00    +0.000 NA
ATOM      3  H   GLU B   1     -17.014  11.103 -14.990  0.00  0.00    +0.000 HD
ATOM      4  H   GLU B   1     -15.931   9.847 -14.823  0.00  0.00    +0.000 HD
ENDBRANCH   1   2
BRANCH   1   5
ATOM      5  C   GLU B   1     -15.366  13.085 -15.255  0.00  0.00    +0.000 C 
ATOM      6  OXT GLU B   1     -15.653  13.207 -16.435  0.00  0.00    +0.000 OA
BRANCH   5   7
ATOM      7  O   GLU B   1     -15.296  14.081 -14.541  0.00  0.00    +0.000 OA
ATOM      8  H   GLU B   1     -15.076  13.993 -13.634  0.00  0.00    +0.000 HD
ENDBRANCH   5   7
ENDBRANCH   1   5
BRANCH   1   9
ATOM      9  CB  GLU B   1     -13.689  11.254 -15.037  0.00  0.00    +0.000 C 
BRANCH   9  10
ATOM     10  CG  GLU B   1     -12.727  12.393 -14.981  0.00  0.00    +0.000 C 
BRANCH  10  11
ATOM     11  CD  GLU B   1     -11.810  12.316 -13.794  0.00  0.00    +0.000 C 
ATOM     12  OE1 GLU B   1     -10.859  11.506 -13.836  0.00  0.00    +0.000 OA
BRANCH  11  13
ATOM     13  OE2 GLU B   1     -12.007  13.058 -12.831  0.00  0.00    +0.000 OA
ATOM     14  H   GLU B   1     -12.731  13.652 -12.837  0.00  0.00    +0.000 HD
ENDBRANCH  11  13
ENDBRANCH  10  11
ENDBRANCH   9  10
ENDBRANCH   1   9
TORSDOF 7
