REMARK  Name = /storage/kiran-stuff/aaRS/phase2/energy_scoring/vina_182jobs/COMPETITION_FULL_anc_prors_PRO_vs_GLU_PRO/ligand.h.pdb
REMARK  7 active torsions:
REMARK  status: ('A' for Active; 'I' for Inactive)
REMARK    1  A    between atoms: N_1  and  CA_2
REMARK    2  A    between atoms: CA_2  and  C_3
REMARK    3  A    between atoms: CA_2  and  CB_5
REMARK    4  A    between atoms: C_3  and  O_4
REMARK    5  A    between atoms: CB_5  and  CG_6
REMARK    6  A    between atoms: CG_6  and  CD_7
REMARK    7  A    between atoms: CD_7  and  OE2_9
REMARK                            x       y       z     vdW  Elec       q    Type
REMARK                         _______ _______ _______ _____ _____    ______ ____
ROOT
ATOM      1  CA  GLU B   1     -13.973  12.192 -14.972  0.00  0.00    +0.000 C 
ENDROOT
BRANCH   1   2
ATOM      2  N   GLU B   1     -12.563  11.943 -14.716  0.00  0.00    +0.000 NA
ATOM      3  H   GLU B   1     -12.407  10.939 -14.622  0.00  0.00    +0.000 HD
ATOM      4  H   GLU B   1     -12.286  12.413 -13.854  0.00  0.00    +0.000 HD
ENDBRANCH   1   2
BRANCH   1   5
ATOM      5  C   GLU B   1     -14.398  11.422 -16.209  0.00  0.00    +0.000 C 
ATOM      6  OXT GLU B   1     -13.565  10.755 -16.802  0.00  0.00    +0.000 OA
BRANCH   5   7
ATOM      7  O   GLU B   1     -15.551  11.467 -16.628  0.00  0.00    +0.000 OA
ATOM      8  H   GLU B   1     -16.194  11.977 -16.176  0.00  0.00    +0.000 HD
ENDBRANCH   5   7
ENDBRANCH   1   5
BRANCH   1   9
ATOM      9  CB  GLU B   1     -14.260  13.660 -15.120  0.00  0.00    +0.000 C 
BRANCH   9  10
ATOM     10  CG  GLU B   1     -15.726  13.935 -15.111  0.00  0.00    +0.000 C 
BRANCH  10  11
ATOM     11  CD  GLU B   1     -16.071  15.198 -14.375  0.00  0.00    +0.000 C 
ATOM     12  OE1 GLU B   1     -16.826  16.020 -14.938  0.00  0.00    +0.000 OA
BRANCH  11  13
ATOM     13  OE2 GLU B   1     -15.622  15.378 -13.242  0.00  0.00    +0.000 OA
ATOM     14  H   GLU B   1     -15.059  14.738 -12.854  0.00  0.00    +0.000 HD
ENDBRANCH  11  13
ENDBRANCH  10  11
ENDBRANCH   9  10
ENDBRANCH   1   9
TORSDOF 7
