REMARK  Name = /storage/kiran-stuff/aaRS/phase2/energy_scoring/vina_182jobs/anc_prors_cat_HIS_HIS/ligand.h.pdb
REMARK  5 active torsions:
REMARK  status: ('A' for Active; 'I' for Inactive)
REMARK    1  A    between atoms: N_1  and  CA_2
REMARK    2  A    between atoms: CA_2  and  C_3
REMARK    3  A    between atoms: CA_2  and  CB_5
REMARK    4  A    between atoms: C_3  and  O_4
REMARK    5  A    between atoms: CB_5  and  CG_6
REMARK                            x       y       z     vdW  Elec       q    Type
REMARK                         _______ _______ _______ _____ _____    ______ ____
ROOT
ATOM      1  CA  HIS B   1       8.690  -1.263  10.112  0.00  0.00    +0.000 C 
ENDROOT
BRANCH   1   2
ATOM      2  N   HIS B   1       8.249  -0.513  11.281  0.00  0.00    +0.000 NA
ATOM      3  H   HIS B   1       7.238  -0.386  11.241  0.00  0.00    +0.000 HD
ATOM      4  H   HIS B   1       8.706   0.399  11.292  0.00  0.00    +0.000 HD
ENDBRANCH   1   2
BRANCH   1   5
ATOM      5  C   HIS B   1       8.011  -2.623  10.030  0.00  0.00    +0.000 C 
ATOM      6  OXT HIS B   1       8.436  -3.467   9.232  0.00  0.00    +0.000 OA
BRANCH   5   7
ATOM      7  O   HIS B   1       7.028  -2.882  10.750  0.00  0.00    +0.000 OA
ATOM      8  H   HIS B   1       6.707  -2.241  11.354  0.00  0.00    +0.000 HD
ENDBRANCH   5   7
ENDBRANCH   1   5
BRANCH   1   9
ATOM      9  CB  HIS B   1      10.196  -1.458  10.161  0.00  0.00    +0.000 C 
BRANCH   9  10
ATOM     10  CG  HIS B   1      10.971  -0.217   9.843  0.00  0.00    +0.000 A 
ATOM     11  ND1 HIS B   1      10.546   1.032  10.075  0.00  0.00    +0.000 N 
ATOM     12  CD2 HIS B   1      12.183  -0.115   9.261  0.00  0.00    +0.000 A 
ATOM     13  CE1 HIS B   1      11.461   1.889   9.648  0.00  0.00    +0.000 A 
ATOM     14  NE2 HIS B   1      12.476   1.192   9.141  0.00  0.00    +0.000 NA
ATOM     15  H   HIS B   1       9.691   1.275  10.496  0.00  0.00    +0.000 HD
ENDBRANCH   9  10
ENDBRANCH   1   9
TORSDOF 5
