REMARK  Name = /storage/kiran-stuff/aaRS/phase2/energy_scoring/vina_182jobs/anc_thrrs_cat_ILE_ILE/ligand.h.pdb
REMARK  7 active torsions:
REMARK  status: ('A' for Active; 'I' for Inactive)
REMARK    1  A    between atoms: N_1  and  CA_2
REMARK    2  A    between atoms: CA_2  and  C_3
REMARK    3  A    between atoms: CA_2  and  CB_5
REMARK    4  A    between atoms: C_3  and  O_4
REMARK    5  A    between atoms: CB_5  and  CG1_6
REMARK    6  A    between atoms: CB_5  and  CG2_7
REMARK    7  A    between atoms: CG1_6  and  CD1_8
REMARK                            x       y       z     vdW  Elec       q    Type
REMARK                         _______ _______ _______ _____ _____    ______ ____
ROOT
ATOM      1  CA  ILE B   1      -4.421   2.219   4.763  0.00  0.00    +0.000 C 
ENDROOT
BRANCH   1   2
ATOM      2  N   ILE B   1      -4.769   2.564   3.376  0.00  0.00    +0.000 NA
ATOM      3  H   ILE B   1      -4.301   1.921   2.738  0.00  0.00    +0.000 HD
ATOM      4  H   ILE B   1      -4.469   3.518   3.178  0.00  0.00    +0.000 HD
ENDBRANCH   1   2
BRANCH   1   5
ATOM      5  C   ILE B   1      -5.109   3.166   5.732  0.00  0.00    +0.000 C 
ATOM      6  OXT ILE B   1      -5.609   4.200   5.296  0.00  0.00    +0.000 OA
BRANCH   5   7
ATOM      7  O   ILE B   1      -5.183   2.889   6.939  0.00  0.00    +0.000 OA
ATOM      8  H   ILE B   1      -4.799   2.098   7.263  0.00  0.00    +0.000 HD
ENDBRANCH   5   7
ENDBRANCH   1   5
BRANCH   1   9
ATOM      9  CB  ILE B   1      -2.886   2.233   4.910  0.00  0.00    +0.000 C 
ATOM     10  CG2 ILE B   1      -2.354   3.637   4.900  0.00  0.00    +0.000 C 
BRANCH   9  11
ATOM     11  CG1 ILE B   1      -2.459   1.496   6.152  0.00  0.00    +0.000 C 
ATOM     12  CD1 ILE B   1      -0.985   1.343   6.236  0.00  0.00    +0.000 C 
ENDBRANCH   9  11
ENDBRANCH   1   9
TORSDOF 5
