REMARK  Name = /storage/kiran-stuff/aaRS/phase2/energy_scoring/vina_182jobs/anc_thrrs_cat_zn_HIS_HIS/ligand.h.pdb
REMARK  5 active torsions:
REMARK  status: ('A' for Active; 'I' for Inactive)
REMARK    1  A    between atoms: N_1  and  CA_2
REMARK    2  A    between atoms: CA_2  and  C_3
REMARK    3  A    between atoms: CA_2  and  CB_5
REMARK    4  A    between atoms: C_3  and  OXT_11
REMARK    5  A    between atoms: CB_5  and  CG_6
REMARK                            x       y       z     vdW  Elec       q    Type
REMARK                         _______ _______ _______ _____ _____    ______ ____
ROOT
ATOM      1  CA  HIS B   1      -6.443   6.162  -2.530  0.00  0.00    +0.000 C 
ENDROOT
BRANCH   1   2
ATOM      2  N   HIS B   1      -7.340   5.014  -2.384  0.00  0.00    +0.000 NA
ATOM      3  H   HIS B   1      -8.016   5.012  -3.148  0.00  0.00    +0.000 HD
ATOM      4  H   HIS B   1      -7.833   5.079  -1.493  0.00  0.00    +0.000 HD
ENDBRANCH   1   2
BRANCH   1   5
ATOM      5  C   HIS B   1      -5.787   6.103  -3.882  0.00  0.00    +0.000 C 
ATOM      6  O   HIS B   1      -5.618   7.149  -4.524  0.00  0.00    +0.000 OA
BRANCH   5   7
ATOM      7  OXT HIS B   1      -5.470   5.020  -4.356  0.00  0.00    +0.000 OA
ATOM      8  H   HIS B   1      -5.602   4.235  -3.861  0.00  0.00    +0.000 HD
ENDBRANCH   5   7
ENDBRANCH   1   5
BRANCH   1   9
ATOM      9  CB  HIS B   1      -5.450   6.127  -1.370  0.00  0.00    +0.000 C 
BRANCH   9  10
ATOM     10  CG  HIS B   1      -4.179   6.831  -1.575  0.00  0.00    +0.000 C 
ATOM     11  ND1 HIS B   1      -4.082   8.152  -1.738  0.00  0.00    +0.000 NA
ATOM     12  CD2 HIS B   1      -2.937   6.311  -1.665  0.00  0.00    +0.000 C 
ATOM     13  CE1 HIS B   1      -2.799   8.446  -1.907  0.00  0.00    +0.000 C 
ATOM     14  NE2 HIS B   1      -2.085   7.331  -1.863  0.00  0.00    +0.000 NA
ENDBRANCH   9  10
ENDBRANCH   1   9
TORSDOF 5
