REMARK  Name = /storage/kiran-stuff/aaRS/phase2/energy_scoring/vina_182jobs/anc_thrrs_cat_zn_HIS_HIS/ligand.h.pdb
REMARK  5 active torsions:
REMARK  status: ('A' for Active; 'I' for Inactive)
REMARK    1  A    between atoms: N_1  and  CA_2
REMARK    2  A    between atoms: CA_2  and  C_3
REMARK    3  A    between atoms: CA_2  and  CB_5
REMARK    4  A    between atoms: C_3  and  OXT_11
REMARK    5  A    between atoms: CB_5  and  CG_6
REMARK                            x       y       z     vdW  Elec       q    Type
REMARK                         _______ _______ _______ _____ _____    ______ ____
ROOT
ATOM      1  CA  HIS B   1      -6.324   6.055  -2.812  0.00  0.00    +0.000 C 
ENDROOT
BRANCH   1   2
ATOM      2  N   HIS B   1      -7.180   4.950  -2.375  0.00  0.00    +0.000 NA
ATOM      3  H   HIS B   1      -7.841   4.719  -3.116  0.00  0.00    +0.000 HD
ATOM      4  H   HIS B   1      -7.691   5.228  -1.536  0.00  0.00    +0.000 HD
ENDBRANCH   1   2
BRANCH   1   5
ATOM      5  C   HIS B   1      -5.641   5.669  -4.095  0.00  0.00    +0.000 C 
ATOM      6  O   HIS B   1      -5.458   6.526  -4.970  0.00  0.00    +0.000 OA
BRANCH   5   7
ATOM      7  OXT HIS B   1      -5.316   4.504  -4.282  0.00  0.00    +0.000 OA
ATOM      8  H   HIS B   1      -5.459   3.863  -3.613  0.00  0.00    +0.000 HD
ENDBRANCH   5   7
ENDBRANCH   1   5
BRANCH   1   9
ATOM      9  CB  HIS B   1      -5.351   6.368  -1.676  0.00  0.00    +0.000 C 
BRANCH   9  10
ATOM     10  CG  HIS B   1      -4.067   6.965  -2.059  0.00  0.00    +0.000 C 
ATOM     11  ND1 HIS B   1      -3.953   8.136  -2.688  0.00  0.00    +0.000 NA
ATOM     12  CD2 HIS B   1      -2.825   6.464  -1.891  0.00  0.00    +0.000 C 
ATOM     13  CE1 HIS B   1      -2.661   8.365  -2.888  0.00  0.00    +0.000 C 
ATOM     14  NE2 HIS B   1      -1.958   7.352  -2.404  0.00  0.00    +0.000 NA
ENDBRANCH   9  10
ENDBRANCH   1   9
TORSDOF 5
