REMARK  Name = /storage/kiran-stuff/aaRS/phase2/energy_scoring/vina_182jobs/modern_prors_ARG_ARG/ligand.h.pdb
REMARK  7 active torsions:
REMARK  status: ('A' for Active; 'I' for Inactive)
REMARK    1  A    between atoms: N_1  and  CA_2
REMARK    2  A    between atoms: CA_2  and  C_3
REMARK    3  A    between atoms: CA_2  and  CB_5
REMARK    4  A    between atoms: C_3  and  OXT_12
REMARK    5  A    between atoms: CB_5  and  CG_6
REMARK    6  A    between atoms: CG_6  and  CD_7
REMARK    7  A    between atoms: CD_7  and  NE_8
REMARK                            x       y       z     vdW  Elec       q    Type
REMARK                         _______ _______ _______ _____ _____    ______ ____
ROOT
ATOM      1  CG  ARG B   1      -9.903   5.479  -0.050  0.00  0.00    +0.000 C 
ENDROOT
BRANCH   1   2
ATOM      2  CB  ARG B   1     -11.024   6.449  -0.425  0.00  0.00    +0.000 C 
BRANCH   2   3
ATOM      3  CA  ARG B   1     -11.746   7.042   0.766  0.00  0.00    +0.000 C 
BRANCH   3   4
ATOM      4  N   ARG B   1     -12.708   8.058   0.259  0.00  0.00    +0.000 NA
ATOM      5  H   ARG B   1     -13.368   7.611  -0.379  0.00  0.00    +0.000 HD
ATOM      6  H   ARG B   1     -12.199   8.789  -0.237  0.00  0.00    +0.000 HD
ENDBRANCH   3   4
BRANCH   3   7
ATOM      7  C   ARG B   1     -10.763   7.712   1.717  0.00  0.00    +0.000 C 
ATOM      8  O   ARG B   1     -10.264   8.811   1.441  0.00  0.00    +0.000 OA
BRANCH   7   9
ATOM      9  OXT ARG B   1     -10.433   7.136   2.770  0.00  0.00    +0.000 OA
ATOM     10  H   ARG B   1     -10.807   6.303   2.986  0.00  0.00    +0.000 HD
ENDBRANCH   7   9
ENDBRANCH   3   7
ENDBRANCH   2   3
ENDBRANCH   1   2
BRANCH   1  11
ATOM     11  CD  ARG B   1      -8.598   5.907  -0.670  0.00  0.00    +0.000 C 
BRANCH  11  12
ATOM     12  NE  ARG B   1      -7.668   4.799  -0.855  0.00  0.00    +0.000 NA
ATOM     13  CZ  ARG B   1      -6.369   4.991  -1.078  0.00  0.00    +0.000 C 
ATOM     14  NH1 ARG B   1      -5.872   6.217  -1.112  0.00  0.00    +0.000 N 
ATOM     15  NH2 ARG B   1      -5.580   3.928  -1.253  0.00  0.00    +0.000 N 
ATOM     16  H   ARG B   1      -4.912   6.354  -1.277  0.00  0.00    +0.000 HD
ATOM     17  H   ARG B   1      -6.464   6.992  -0.972  0.00  0.00    +0.000 HD
ATOM     18  H   ARG B   1      -4.617   4.051  -1.420  0.00  0.00    +0.000 HD
ATOM     19  H   ARG B   1      -5.961   3.021  -1.217  0.00  0.00    +0.000 HD
ENDBRANCH  11  12
ENDBRANCH   1  11
TORSDOF 7
