REMARK  Name = /storage/kiran-stuff/aaRS/phase2/energy_scoring/vina_182jobs/modern_prors_ARG_ARG/ligand.h.pdb
REMARK  7 active torsions:
REMARK  status: ('A' for Active; 'I' for Inactive)
REMARK    1  A    between atoms: N_1  and  CA_2
REMARK    2  A    between atoms: CA_2  and  C_3
REMARK    3  A    between atoms: CA_2  and  CB_5
REMARK    4  A    between atoms: C_3  and  OXT_12
REMARK    5  A    between atoms: CB_5  and  CG_6
REMARK    6  A    between atoms: CG_6  and  CD_7
REMARK    7  A    between atoms: CD_7  and  NE_8
REMARK                            x       y       z     vdW  Elec       q    Type
REMARK                         _______ _______ _______ _____ _____    ______ ____
ROOT
ATOM      1  CG  ARG B   1     -10.136   5.660   0.157  0.00  0.00    +0.000 C 
ENDROOT
BRANCH   1   2
ATOM      2  CB  ARG B   1     -11.100   6.827  -0.060  0.00  0.00    +0.000 C 
BRANCH   2   3
ATOM      3  CA  ARG B   1     -11.833   7.259   1.192  0.00  0.00    +0.000 C 
BRANCH   3   4
ATOM      4  N   ARG B   1     -12.565   8.517   0.882  0.00  0.00    +0.000 NA
ATOM      5  H   ARG B   1     -13.221   8.349   0.119  0.00  0.00    +0.000 HD
ATOM      6  H   ARG B   1     -11.899   9.238   0.605  0.00  0.00    +0.000 HD
ENDBRANCH   3   4
BRANCH   3   7
ATOM      7  C   ARG B   1     -10.855   7.514   2.331  0.00  0.00    +0.000 C 
ATOM      8  O   ARG B   1     -10.394   8.646   2.528  0.00  0.00    +0.000 OA
BRANCH   7   9
ATOM      9  OXT ARG B   1     -10.491   6.569   3.055  0.00  0.00    +0.000 OA
ATOM     10  H   ARG B   1     -10.836   5.709   2.912  0.00  0.00    +0.000 HD
ENDBRANCH   7   9
ENDBRANCH   3   7
ENDBRANCH   2   3
ENDBRANCH   1   2
BRANCH   1  11
ATOM     11  CD  ARG B   1      -8.848   5.886  -0.592  0.00  0.00    +0.000 C 
BRANCH  11  12
ATOM     12  NE  ARG B   1      -7.915   4.773  -0.463  0.00  0.00    +0.000 NA
ATOM     13  CZ  ARG B   1      -6.628   4.883  -0.787  0.00  0.00    +0.000 C 
ATOM     14  NH1 ARG B   1      -6.145   6.037  -1.218  0.00  0.00    +0.000 N 
ATOM     15  NH2 ARG B   1      -5.836   3.815  -0.658  0.00  0.00    +0.000 N 
ATOM     16  H   ARG B   1      -5.193   6.114  -1.456  0.00  0.00    +0.000 HD
ATOM     17  H   ARG B   1      -6.738   6.819  -1.300  0.00  0.00    +0.000 HD
ATOM     18  H   ARG B   1      -4.882   3.878  -0.893  0.00  0.00    +0.000 HD
ATOM     19  H   ARG B   1      -6.206   2.965  -0.328  0.00  0.00    +0.000 HD
ENDBRANCH  11  12
ENDBRANCH   1  11
TORSDOF 7
