REMARK  Name = /storage/kiran-stuff/aaRS/phase2/energy_scoring/vina_182jobs/modern_prors_GLN_GLN/ligand.h.pdb
REMARK  6 active torsions:
REMARK  status: ('A' for Active; 'I' for Inactive)
REMARK    1  A    between atoms: N_1  and  CA_2
REMARK    2  A    between atoms: CA_2  and  C_3
REMARK    3  A    between atoms: CA_2  and  CB_5
REMARK    4  A    between atoms: C_3  and  OXT_10
REMARK    5  A    between atoms: CB_5  and  CG_6
REMARK    6  A    between atoms: CG_6  and  CD_7
REMARK                            x       y       z     vdW  Elec       q    Type
REMARK                         _______ _______ _______ _____ _____    ______ ____
ROOT
ATOM      1  CA  GLN B   1      -1.214  -3.573  -8.863  0.00  0.00    +0.000 C 
ENDROOT
BRANCH   1   2
ATOM      2  N   GLN B   1      -1.032  -4.711  -9.789  0.00  0.00    +0.000 NA
ATOM      3  H   GLN B   1      -0.852  -4.359 -10.729  0.00  0.00    +0.000 HD
ATOM      4  H   GLN B   1      -1.877  -5.282  -9.796  0.00  0.00    +0.000 HD
ENDBRANCH   1   2
BRANCH   1   5
ATOM      5  C   GLN B   1       0.025  -2.704  -8.850  0.00  0.00    +0.000 C 
ATOM      6  O   GLN B   1       1.137  -3.181  -9.035  0.00  0.00    +0.000 OA
BRANCH   5   7
ATOM      7  OXT GLN B   1      -0.066  -1.503  -8.651  0.00  0.00    +0.000 OA
ATOM      8  H   GLN B   1      -0.906  -1.113  -8.506  0.00  0.00    +0.000 HD
ENDBRANCH   5   7
ENDBRANCH   1   5
BRANCH   1   9
ATOM      9  CB  GLN B   1      -1.482  -4.114  -7.466  0.00  0.00    +0.000 C 
BRANCH   9  10
ATOM     10  CG  GLN B   1      -2.117  -3.084  -6.521  0.00  0.00    +0.000 C 
BRANCH  10  11
ATOM     11  CD  GLN B   1      -1.120  -2.447  -5.594  0.00  0.00    +0.000 C 
ATOM     12  OE1 GLN B   1      -0.409  -3.118  -4.869  0.00  0.00    +0.000 OA
ATOM     13  NE2 GLN B   1      -1.026  -1.121  -5.550  0.00  0.00    +0.000 N 
ATOM     14  H   GLN B   1      -1.595  -0.567  -6.132  0.00  0.00    +0.000 HD
ATOM     15  H   GLN B   1      -0.387  -0.692  -4.936  0.00  0.00    +0.000 HD
ENDBRANCH  10  11
ENDBRANCH   9  10
ENDBRANCH   1   9
TORSDOF 6
