REMARK  Name = /storage/kiran-stuff/aaRS/phase2/energy_scoring/vina_182jobs/modern_prors_GLN_GLN/ligand.h.pdb
REMARK  6 active torsions:
REMARK  status: ('A' for Active; 'I' for Inactive)
REMARK    1  A    between atoms: N_1  and  CA_2
REMARK    2  A    between atoms: CA_2  and  C_3
REMARK    3  A    between atoms: CA_2  and  CB_5
REMARK    4  A    between atoms: C_3  and  OXT_10
REMARK    5  A    between atoms: CB_5  and  CG_6
REMARK    6  A    between atoms: CG_6  and  CD_7
REMARK                            x       y       z     vdW  Elec       q    Type
REMARK                         _______ _______ _______ _____ _____    ______ ____
ROOT
ATOM      1  CA  GLN B   1      -1.225  -3.514  -9.148  0.00  0.00    +0.000 C 
ENDROOT
BRANCH   1   2
ATOM      2  N   GLN B   1      -0.741  -4.403 -10.225  0.00  0.00    +0.000 NA
ATOM      3  H   GLN B   1      -0.597  -3.859 -11.076  0.00  0.00    +0.000 HD
ATOM      4  H   GLN B   1      -1.432  -5.132 -10.401  0.00  0.00    +0.000 HD
ENDBRANCH   1   2
BRANCH   1   5
ATOM      5  C   GLN B   1      -0.219  -2.415  -8.883  0.00  0.00    +0.000 C 
ATOM      6  O   GLN B   1       0.869  -2.401  -9.445  0.00  0.00    +0.000 OA
BRANCH   5   7
ATOM      7  OXT GLN B   1      -0.477  -1.518  -8.096  0.00  0.00    +0.000 OA
ATOM      8  H   GLN B   1      -1.303  -1.506  -7.653  0.00  0.00    +0.000 HD
ENDBRANCH   5   7
ENDBRANCH   1   5
BRANCH   1   9
ATOM      9  CB  GLN B   1      -1.435  -4.339  -7.887  0.00  0.00    +0.000 C 
BRANCH   9  10
ATOM     10  CG  GLN B   1      -2.260  -3.616  -6.812  0.00  0.00    +0.000 C 
BRANCH  10  11
ATOM     11  CD  GLN B   1      -1.410  -2.835  -5.849  0.00  0.00    +0.000 C 
ATOM     12  OE1 GLN B   1      -0.509  -3.364  -5.225  0.00  0.00    +0.000 OA
ATOM     13  NE2 GLN B   1      -1.661  -1.542  -5.660  0.00  0.00    +0.000 N 
ATOM     14  H   GLN B   1      -2.387  -1.103  -6.159  0.00  0.00    +0.000 HD
ATOM     15  H   GLN B   1      -1.120  -1.024  -5.021  0.00  0.00    +0.000 HD
ENDBRANCH  10  11
ENDBRANCH   9  10
ENDBRANCH   1   9
TORSDOF 6
