REMARK  Name = /storage/kiran-stuff/aaRS/phase2/energy_scoring/vina_182jobs/deep_cat_phe_PHE/ligand.h.pdb
REMARK  5 active torsions:
REMARK  status: ('A' for Active; 'I' for Inactive)
REMARK    1  A    between atoms: N_1  and  CA_2
REMARK    2  A    between atoms: CA_2  and  C_3
REMARK    3  A    between atoms: CA_2  and  CB_5
REMARK    4  A    between atoms: C_3  and  OXT_12
REMARK    5  A    between atoms: CB_5  and  CG_6
REMARK                            x       y       z     vdW  Elec       q    Type
REMARK                         _______ _______ _______ _____ _____    ______ ____
ROOT
ATOM      1  CA  PHE C   1     -21.368   7.801  -7.077  0.00  0.00    +0.000 C 
ENDROOT
BRANCH   1   2
ATOM      2  N   PHE C   1     -22.791   7.927  -7.387  0.00  0.00    +0.000 NA
ATOM      3  H   PHE C   1     -22.956   7.637  -8.351  0.00  0.00    +0.000 HD
ATOM      4  H   PHE C   1     -23.080   8.898  -7.270  0.00  0.00    +0.000 HD
ENDBRANCH   1   2
BRANCH   1   5
ATOM      5  C   PHE C   1     -20.949   6.361  -7.335  0.00  0.00    +0.000 C 
ATOM      6  O   PHE C   1     -21.310   5.811  -8.385  0.00  0.00    +0.000 OA
BRANCH   5   7
ATOM      7  OXT PHE C   1     -20.285   5.718  -6.545  0.00  0.00    +0.000 OA
ATOM      8  H   PHE C   1     -20.000   6.111  -5.744  0.00  0.00    +0.000 HD
ENDBRANCH   5   7
ENDBRANCH   1   5
BRANCH   1   9
ATOM      9  CB  PHE C   1     -21.176   8.240  -5.646  0.00  0.00    +0.000 C 
BRANCH   9  10
ATOM     10  CG  PHE C   1     -19.921   9.027  -5.331  0.00  0.00    +0.000 A 
ATOM     11  CD1 PHE C   1     -19.270   8.789  -4.136  0.00  0.00    +0.000 A 
ATOM     12  CD2 PHE C   1     -19.407   9.966  -6.203  0.00  0.00    +0.000 A 
ATOM     13  CE1 PHE C   1     -18.113   9.478  -3.835  0.00  0.00    +0.000 A 
ATOM     14  CE2 PHE C   1     -18.253  10.649  -5.881  0.00  0.00    +0.000 A 
ATOM     15  CZ  PHE C   1     -17.595  10.415  -4.703  0.00  0.00    +0.000 A 
ENDBRANCH   9  10
ENDBRANCH   1   9
TORSDOF 5
