REMARK  Name = /storage/kiran-stuff/aaRS/phase2/energy_scoring/vina_182jobs/deep_cat_phe_PHE/ligand.h.pdb
REMARK  610 active torsions:
REMARK  status: ('A' for Active; 'I' for Inactive)
REMARK    1  A    between atoms: OP3_1  and  P_2
REMARK    2  A    between atoms: P_2  and  OP1_3
REMARK    3  A    between atoms: P_2  and  O5'_5
REMARK    4  A    between atoms: O5'_5  and  C5'_6
REMARK    5  A    between atoms: C5'_6  and  C4'_7
REMARK    6  A    between atoms: C3'_9  and  O3'_10
REMARK    7  A    between atoms: O3'_10  and  P_22
REMARK    8  A    between atoms: C2'_11  and  O2'_12
REMARK    9  A    between atoms: C1'_13  and  N1_14
REMARK   10  A    between atoms: P_22  and  OP1_23
REMARK   11  A    between atoms: P_22  and  O5'_25
REMARK   12  A    between atoms: O5'_25  and  C5'_26
REMARK   13  A    between atoms: C5'_26  and  C4'_27
REMARK   14  A    between atoms: C3'_29  and  O3'_30
REMARK   15  A    between atoms: O3'_30  and  P_42
REMARK   16  A    between atoms: C2'_31  and  O2'_32
REMARK   17  A    between atoms: C1'_33  and  N1_34
REMARK   18  A    between atoms: P_42  and  OP1_43
REMARK   19  A    between atoms: P_42  and  O5'_45
REMARK   20  A    between atoms: O5'_45  and  C5'_46
REMARK   21  A    between atoms: C5'_46  and  C4'_47
REMARK   22  A    between atoms: C3'_49  and  O3'_50
REMARK   23  A    between atoms: O3'_50  and  P_64
REMARK   24  A    between atoms: C2'_51  and  O2'_52
REMARK   25  A    between atoms: C1'_53  and  N9_54
REMARK   26  A    between atoms: C6_58  and  N6_59
REMARK   27  A    between atoms: P_64  and  OP2_66
REMARK   28  A    between atoms: P_64  and  O5'_67
REMARK   29  A    between atoms: O5'_67  and  C5'_68
REMARK   30  A    between atoms: C5'_68  and  C4'_69
REMARK   31  A    between atoms: C3'_71  and  O3'_72
REMARK   32  A    between atoms: O3'_72  and  P_86
REMARK   33  A    between atoms: C2'_73  and  O2'_74
REMARK   34  A    between atoms: C1'_75  and  N9_76
REMARK   35  A    between atoms: P_86  and  OP2_88
REMARK   36  A    between atoms: P_86  and  O5'_89
REMARK   37  A    between atoms: O5'_89  and  C5'_90
REMARK   38  A    between atoms: C5'_90  and  C4'_91
REMARK   39  A    between atoms: C3'_93  and  O3'_94
REMARK   40  A    between atoms: O3'_94  and  P_106
REMARK   41  A    between atoms: C2'_95  and  O2'_96
REMARK   42  A    between atoms: C1'_97  and  N1_98
REMARK   43  A    between atoms: P_106  and  OP2_108
REMARK   44  A    between atoms: P_106  and  O5'_109
REMARK   45  A    between atoms: O5'_109  and  C5'_110
REMARK   46  A    between atoms: C5'_110  and  C4'_111
REMARK   47  A    between atoms: C3'_113  and  O3'_114
REMARK   48  A    between atoms: O3'_114  and  P_128
REMARK   49  A    between atoms: C2'_115  and  O2'_116
REMARK   50  A    between atoms: C1'_117  and  N9_118
REMARK   51  A    between atoms: P_128  and  OP2_130
REMARK   52  A    between atoms: P_128  and  O5'_131
REMARK   53  A    between atoms: O5'_131  and  C5'_132
REMARK   54  A    between atoms: C5'_132  and  C4'_133
REMARK   55  A    between atoms: C3'_135  and  O3'_136
REMARK   56  A    between atoms: O3'_136  and  P_148
REMARK   57  A    between atoms: C2'_137  and  O2'_138
REMARK   58  A    between atoms: C1'_139  and  N1_140
REMARK   59  A    between atoms: P_148  and  OP2_150
REMARK   60  A    between atoms: P_148  and  O5'_151
REMARK   61  A    between atoms: O5'_151  and  C5'_152
REMARK   62  A    between atoms: C5'_152  and  C4'_153
REMARK   63  A    between atoms: C3'_155  and  O3'_156
REMARK   64  A    between atoms: O3'_156  and  P_168
REMARK   65  A    between atoms: C2'_157  and  O2'_158
REMARK   66  A    between atoms: C1'_159  and  N1_160
REMARK   67  A    between atoms: P_168  and  OP1_169
REMARK   68  A    between atoms: P_168  and  O5'_171
REMARK   69  A    between atoms: O5'_171  and  C5'_172
REMARK   70  A    between atoms: C5'_172  and  C4'_173
REMARK   71  A    between atoms: C3'_175  and  O3'_176
REMARK   72  A    between atoms: O3'_176  and  P_190
REMARK   73  A    between atoms: C2'_177  and  O2'_178
REMARK   74  A    between atoms: C1'_179  and  N9_180
REMARK   75  A    between atoms: P_190  and  OP2_192
REMARK   76  A    between atoms: P_190  and  O5'_193
REMARK   77  A    between atoms: O5'_193  and  C5'_194
REMARK   78  A    between atoms: C5'_194  and  C4'_195
REMARK   79  A    between atoms: C3'_197  and  O3'_198
REMARK   80  A    between atoms: O3'_198  and  P_210
REMARK   81  A    between atoms: C2'_199  and  O2'_200
REMARK   82  A    between atoms: C1'_201  and  N1_202
REMARK   83  A    between atoms: P_210  and  OP2_212
REMARK   84  A    between atoms: P_210  and  O5'_213
REMARK   85  A    between atoms: O5'_213  and  C5'_214
REMARK   86  A    between atoms: C5'_214  and  C4'_215
REMARK   87  A    between atoms: C3'_217  and  O3'_218
REMARK   88  A    between atoms: O3'_218  and  P_230
REMARK   89  A    between atoms: C2'_219  and  O2'_220
REMARK   90  A    between atoms: C1'_221  and  N1_222
REMARK   91  A    between atoms: P_230  and  OP2_232
REMARK   92  A    between atoms: P_230  and  O5'_233
REMARK   93  A    between atoms: O5'_233  and  C5'_234
REMARK   94  A    between atoms: C5'_234  and  C4'_235
REMARK   95  A    between atoms: C3'_237  and  O3'_238
REMARK   96  A    between atoms: O3'_238  and  P_250
REMARK   97  A    between atoms: C2'_239  and  O2'_240
REMARK   98  A    between atoms: C1'_241  and  N1_242
REMARK   99  A    between atoms: P_250  and  OP1_251
REMARK  100  A    between atoms: P_250  and  O5'_253
REMARK  101  A    between atoms: O5'_253  and  C5'_254
REMARK  102  A    between atoms: C5'_254  and  C4'_255
REMARK  103  A    between atoms: C3'_257  and  O3'_258
REMARK  104  A    between atoms: O3'_258  and  P_270
REMARK  105  A    between atoms: C2'_259  and  O2'_260
REMARK  106  A    between atoms: C1'_261  and  N1_262
REMARK  107  A    between atoms: P_270  and  OP1_271
REMARK  108  A    between atoms: P_270  and  O5'_273
REMARK  109  A    between atoms: O5'_273  and  C5'_274
REMARK  110  A    between atoms: C5'_274  and  C4'_275
REMARK  111  A    between atoms: C3'_277  and  O3'_278
REMARK  112  A    between atoms: O3'_278  and  P_292
REMARK  113  A    between atoms: C2'_279  and  O2'_280
REMARK  114  A    between atoms: C1'_281  and  N9_282
REMARK  115  A    between atoms: C6_286  and  N6_287
REMARK  116  A    between atoms: P_292  and  OP1_293
REMARK  117  A    between atoms: P_292  and  O5'_295
REMARK  118  A    between atoms: O5'_295  and  C5'_296
REMARK  119  A    between atoms: C5'_296  and  C4'_297
REMARK  120  A    between atoms: C3'_299  and  O3'_300
REMARK  121  A    between atoms: O3'_300  and  P_312
REMARK  122  A    between atoms: C2'_301  and  O2'_302
REMARK  123  A    between atoms: C1'_303  and  N1_304
REMARK  124  A    between atoms: P_312  and  OP1_313
REMARK  125  A    between atoms: P_312  and  O5'_315
REMARK  126  A    between atoms: O5'_315  and  C5'_316
REMARK  127  A    between atoms: C5'_316  and  C4'_317
REMARK  128  A    between atoms: C3'_319  and  O3'_320
REMARK  129  A    between atoms: O3'_320  and  P_332
REMARK  130  A    between atoms: C2'_321  and  O2'_322
REMARK  131  A    between atoms: C1'_323  and  N1_324
REMARK  132  A    between atoms: P_332  and  OP2_334
REMARK  133  A    between atoms: P_332  and  O5'_335
REMARK  134  A    between atoms: O5'_335  and  C5'_336
REMARK  135  A    between atoms: C5'_336  and  C4'_337
REMARK  136  A    between atoms: C3'_339  and  O3'_340
REMARK  137  A    between atoms: O3'_340  and  P_352
REMARK  138  A    between atoms: C2'_341  and  O2'_342
REMARK  139  A    between atoms: C1'_343  and  N1_344
REMARK  140  A    between atoms: P_352  and  OP1_353
REMARK  141  A    between atoms: P_352  and  O5'_355
REMARK  142  A    between atoms: O5'_355  and  C5'_356
REMARK  143  A    between atoms: C5'_356  and  C4'_357
REMARK  144  A    between atoms: C3'_359  and  O3'_360
REMARK  145  A    between atoms: O3'_360  and  P_375
REMARK  146  A    between atoms: C2'_361  and  O2'_362
REMARK  147  A    between atoms: C1'_363  and  N9_364
REMARK  148  A    between atoms: P_375  and  OP1_376
REMARK  149  A    between atoms: P_375  and  O5'_378
REMARK  150  A    between atoms: O5'_378  and  C5'_379
REMARK  151  A    between atoms: C5'_379  and  C4'_380
REMARK  152  A    between atoms: C3'_382  and  O3'_383
REMARK  153  A    between atoms: O3'_383  and  P_397
REMARK  154  A    between atoms: C2'_384  and  O2'_385
REMARK  155  A    between atoms: C1'_386  and  N9_387
REMARK  156  A    between atoms: C6_391  and  N6_392
REMARK  157  A    between atoms: P_397  and  OP1_398
REMARK  158  A    between atoms: P_397  and  O5'_400
REMARK  159  A    between atoms: O5'_400  and  C5'_401
REMARK  160  A    between atoms: C5'_401  and  C4'_402
REMARK  161  A    between atoms: C3'_404  and  O3'_405
REMARK  162  A    between atoms: O3'_405  and  P_419
REMARK  163  A    between atoms: C2'_406  and  O2'_407
REMARK  164  A    between atoms: C1'_408  and  N9_409
REMARK  165  A    between atoms: C6_413  and  N6_414
REMARK  166  A    between atoms: P_419  and  OP1_420
REMARK  167  A    between atoms: P_419  and  O5'_422
REMARK  168  A    between atoms: O5'_422  and  C5'_423
REMARK  169  A    between atoms: C5'_423  and  C4'_424
REMARK  170  A    between atoms: C3'_426  and  O3'_427
REMARK  171  A    between atoms: O3'_427  and  P_441
REMARK  172  A    between atoms: C2'_428  and  O2'_429
REMARK  173  A    between atoms: C1'_430  and  N9_431
REMARK  174  A    between atoms: C6_435  and  N6_436
REMARK  175  A    between atoms: P_441  and  OP2_443
REMARK  176  A    between atoms: P_441  and  O5'_444
REMARK  177  A    between atoms: O5'_444  and  C5'_445
REMARK  178  A    between atoms: C5'_445  and  C4'_446
REMARK  179  A    between atoms: C3'_448  and  O3'_449
REMARK  180  A    between atoms: O3'_449  and  P_461
REMARK  181  A    between atoms: C2'_450  and  O2'_451
REMARK  182  A    between atoms: C1'_452  and  N1_453
REMARK  183  A    between atoms: P_461  and  OP2_463
REMARK  184  A    between atoms: P_461  and  O5'_464
REMARK  185  A    between atoms: O5'_464  and  C5'_465
REMARK  186  A    between atoms: C5'_465  and  C4'_466
REMARK  187  A    between atoms: C3'_468  and  O3'_469
REMARK  188  A    between atoms: O3'_469  and  P_481
REMARK  189  A    between atoms: C2'_470  and  O2'_471
REMARK  190  A    between atoms: C1'_472  and  N1_473
REMARK  191  A    between atoms: P_481  and  OP2_483
REMARK  192  A    between atoms: P_481  and  O5'_484
REMARK  193  A    between atoms: O5'_484  and  C5'_485
REMARK  194  A    between atoms: C5'_485  and  C4'_486
REMARK  195  A    between atoms: C3'_488  and  O3'_489
REMARK  196  A    between atoms: O3'_489  and  P_501
REMARK  197  A    between atoms: C2'_490  and  O2'_491
REMARK  198  A    between atoms: C1'_492  and  N1_493
REMARK  199  A    between atoms: P_501  and  OP2_503
REMARK  200  A    between atoms: P_501  and  O5'_504
REMARK  201  A    between atoms: O5'_504  and  C5'_505
REMARK  202  A    between atoms: C5'_505  and  C4'_506
REMARK  203  A    between atoms: C3'_508  and  O3'_509
REMARK  204  A    between atoms: O3'_509  and  P_521
REMARK  205  A    between atoms: C2'_510  and  O2'_511
REMARK  206  A    between atoms: C1'_512  and  N1_513
REMARK  207  A    between atoms: P_521  and  OP2_523
REMARK  208  A    between atoms: P_521  and  O5'_524
REMARK  209  A    between atoms: O5'_524  and  C5'_525
REMARK  210  A    between atoms: C5'_525  and  C4'_526
REMARK  211  A    between atoms: C3'_528  and  O3'_529
REMARK  212  A    between atoms: O3'_529  and  P_541
REMARK  213  A    between atoms: C2'_530  and  O2'_531
REMARK  214  A    between atoms: C1'_532  and  N1_533
REMARK  215  A    between atoms: P_541  and  OP2_543
REMARK  216  A    between atoms: P_541  and  O5'_544
REMARK  217  A    between atoms: O5'_544  and  C5'_545
REMARK  218  A    between atoms: C5'_545  and  C4'_546
REMARK  219  A    between atoms: C3'_548  and  O3'_549
REMARK  220  A    between atoms: O3'_549  and  P_561
REMARK  221  A    between atoms: C2'_550  and  O2'_551
REMARK  222  A    between atoms: C1'_552  and  N1_553
REMARK  223  A    between atoms: P_561  and  OP1_562
REMARK  224  A    between atoms: P_561  and  O5'_564
REMARK  225  A    between atoms: O5'_564  and  C5'_565
REMARK  226  A    between atoms: C5'_565  and  C4'_566
REMARK  227  A    between atoms: C3'_568  and  O3'_569
REMARK  228  A    between atoms: O3'_569  and  P_581
REMARK  229  A    between atoms: C2'_570  and  O2'_571
REMARK  230  A    between atoms: C1'_572  and  N1_573
REMARK  231  A    between atoms: P_581  and  OP1_582
REMARK  232  A    between atoms: P_581  and  O5'_584
REMARK  233  A    between atoms: O5'_584  and  C5'_585
REMARK  234  A    between atoms: C5'_585  and  C4'_586
REMARK  235  A    between atoms: C3'_588  and  O3'_589
REMARK  236  A    between atoms: O3'_589  and  P_603
REMARK  237  A    between atoms: C2'_590  and  O2'_591
REMARK  238  A    between atoms: C1'_592  and  N9_593
REMARK  239  A    between atoms: C6_597  and  N6_598
REMARK  240  A    between atoms: P_603  and  OP1_604
REMARK  241  A    between atoms: P_603  and  O5'_606
REMARK  242  A    between atoms: O5'_606  and  C5'_607
REMARK  243  A    between atoms: C5'_607  and  C4'_608
REMARK  244  A    between atoms: C3'_610  and  O3'_611
REMARK  245  A    between atoms: O3'_611  and  P_625
REMARK  246  A    between atoms: C2'_612  and  O2'_613
REMARK  247  A    between atoms: C1'_614  and  N9_615
REMARK  248  A    between atoms: C6_619  and  N6_620
REMARK  249  A    between atoms: P_625  and  OP1_626
REMARK  250  A    between atoms: P_625  and  O5'_628
REMARK  251  A    between atoms: O5'_628  and  C5'_629
REMARK  252  A    between atoms: C5'_629  and  C4'_630
REMARK  253  A    between atoms: C3'_632  and  O3'_633
REMARK  254  A    between atoms: O3'_633  and  P_647
REMARK  255  A    between atoms: C2'_634  and  O2'_635
REMARK  256  A    between atoms: C1'_636  and  N9_637
REMARK  257  A    between atoms: C6_641  and  N6_642
REMARK  258  A    between atoms: P_647  and  OP2_649
REMARK  259  A    between atoms: P_647  and  O5'_650
REMARK  260  A    between atoms: O5'_650  and  C5'_651
REMARK  261  A    between atoms: C5'_651  and  C4'_652
REMARK  262  A    between atoms: C3'_654  and  O3'_655
REMARK  263  A    between atoms: O3'_655  and  P_669
REMARK  264  A    between atoms: C2'_656  and  O2'_657
REMARK  265  A    between atoms: C1'_658  and  N9_659
REMARK  266  A    between atoms: P_669  and  OP2_671
REMARK  267  A    between atoms: P_669  and  O5'_672
REMARK  268  A    between atoms: O5'_672  and  C5'_673
REMARK  269  A    between atoms: C5'_673  and  C4'_674
REMARK  270  A    between atoms: C3'_676  and  O3'_677
REMARK  271  A    between atoms: O3'_677  and  P_689
REMARK  272  A    between atoms: C2'_678  and  O2'_679
REMARK  273  A    between atoms: C1'_680  and  N1_681
REMARK  274  A    between atoms: P_689  and  OP2_691
REMARK  275  A    between atoms: P_689  and  O5'_692
REMARK  276  A    between atoms: O5'_692  and  C5'_693
REMARK  277  A    between atoms: C5'_693  and  C4'_694
REMARK  278  A    between atoms: C3'_696  and  O3'_697
REMARK  279  A    between atoms: O3'_697  and  P_711
REMARK  280  A    between atoms: C2'_698  and  O2'_699
REMARK  281  A    between atoms: C1'_700  and  N9_701
REMARK  282  A    between atoms: P_711  and  OP2_713
REMARK  283  A    between atoms: P_711  and  O5'_714
REMARK  284  A    between atoms: O5'_714  and  C5'_715
REMARK  285  A    between atoms: C5'_715  and  C4'_716
REMARK  286  A    between atoms: C3'_718  and  O3'_719
REMARK  287  A    between atoms: O3'_719  and  P_733
REMARK  288  A    between atoms: C2'_720  and  O2'_721
REMARK  289  A    between atoms: C1'_722  and  N9_723
REMARK  290  A    between atoms: P_733  and  OP2_735
REMARK  291  A    between atoms: P_733  and  O5'_736
REMARK  292  A    between atoms: O5'_736  and  C5'_737
REMARK  293  A    between atoms: C5'_737  and  C4'_738
REMARK  294  A    between atoms: C3'_740  and  O3'_741
REMARK  295  A    between atoms: O3'_741  and  P_753
REMARK  296  A    between atoms: C2'_742  and  O2'_743
REMARK  297  A    between atoms: C1'_744  and  N1_745
REMARK  298  A    between atoms: P_753  and  OP1_754
REMARK  299  A    between atoms: P_753  and  O5'_756
REMARK  300  A    between atoms: O5'_756  and  C5'_757
REMARK  301  A    between atoms: C5'_757  and  C4'_758
REMARK  302  A    between atoms: C3'_760  and  O3'_761
REMARK  303  A    between atoms: O3'_761  and  P_775
REMARK  304  A    between atoms: C2'_762  and  O2'_763
REMARK  305  A    between atoms: C1'_764  and  N9_765
REMARK  306  A    between atoms: C6_769  and  N6_770
REMARK  307  A    between atoms: P_775  and  OP1_776
REMARK  308  A    between atoms: P_775  and  O5'_778
REMARK  309  A    between atoms: O5'_778  and  C5'_779
REMARK  310  A    between atoms: C5'_779  and  C4'_780
REMARK  311  A    between atoms: C3'_782  and  O3'_783
REMARK  312  A    between atoms: O3'_783  and  P_795
REMARK  313  A    between atoms: C2'_784  and  O2'_785
REMARK  314  A    between atoms: C1'_786  and  N1_787
REMARK  315  A    between atoms: P_795  and  OP1_796
REMARK  316  A    between atoms: P_795  and  O5'_798
REMARK  317  A    between atoms: O5'_798  and  C5'_799
REMARK  318  A    between atoms: C5'_799  and  C4'_800
REMARK  319  A    between atoms: C2'_804  and  O2'_805
REMARK  320  A    between atoms: C1'_806  and  N1_807
REMARK  321  A    between atoms: P_815  and  OP1_816
REMARK  322  A    between atoms: C2'_824  and  O2'_825
REMARK  323  A    between atoms: C1'_826  and  N1_827
REMARK  324  A    between atoms: P_835  and  OP2_837
REMARK  325  A    between atoms: C2'_844  and  O2'_845
REMARK  326  A    between atoms: C1'_846  and  N1_847
REMARK  327  A    between atoms: P_855  and  OP1_856
REMARK  328  A    between atoms: C3'_862  and  O3'_863
REMARK  329  A    between atoms: O3'_863  and  P_875
REMARK  330  A    between atoms: C2'_864  and  O2'_865
REMARK  331  A    between atoms: P_875  and  OP1_876
REMARK  332  A    between atoms: P_875  and  O5'_878
REMARK  333  A    between atoms: O5'_878  and  C5'_879
REMARK  334  A    between atoms: C5'_879  and  C4'_880
REMARK  335  A    between atoms: C3'_882  and  O3'_883
REMARK  336  A    between atoms: O3'_883  and  P_897
REMARK  337  A    between atoms: C2'_884  and  O2'_885
REMARK  338  A    between atoms: C1'_886  and  N9_887
REMARK  339  A    between atoms: C6_891  and  N6_892
REMARK  340  A    between atoms: P_897  and  OP1_898
REMARK  341  A    between atoms: P_897  and  O5'_900
REMARK  342  A    between atoms: O5'_900  and  C5'_901
REMARK  343  A    between atoms: C5'_901  and  C4'_902
REMARK  344  A    between atoms: C3'_904  and  O3'_905
REMARK  345  A    between atoms: O3'_905  and  P_917
REMARK  346  A    between atoms: C2'_906  and  O2'_907
REMARK  347  A    between atoms: C1'_908  and  N1_909
REMARK  348  A    between atoms: P_917  and  OP1_918
REMARK  349  A    between atoms: P_917  and  O5'_920
REMARK  350  A    between atoms: O5'_920  and  C5'_921
REMARK  351  A    between atoms: C5'_921  and  C4'_922
REMARK  352  A    between atoms: C3'_924  and  O3'_925
REMARK  353  A    between atoms: O3'_925  and  P_937
REMARK  354  A    between atoms: C2'_926  and  O2'_927
REMARK  355  A    between atoms: C1'_928  and  N1_929
REMARK  356  A    between atoms: P_937  and  OP1_938
REMARK  357  A    between atoms: P_937  and  O5'_940
REMARK  358  A    between atoms: O5'_940  and  C5'_941
REMARK  359  A    between atoms: C5'_941  and  C4'_942
REMARK  360  A    between atoms: C3'_944  and  O3'_945
REMARK  361  A    between atoms: O3'_945  and  P_957
REMARK  362  A    between atoms: C2'_946  and  O2'_947
REMARK  363  A    between atoms: C1'_948  and  N1_949
REMARK  364  A    between atoms: P_957  and  OP2_959
REMARK  365  A    between atoms: P_957  and  O5'_960
REMARK  366  A    between atoms: O5'_960  and  C5'_961
REMARK  367  A    between atoms: C5'_961  and  C4'_962
REMARK  368  A    between atoms: C3'_964  and  O3'_965
REMARK  369  A    between atoms: O3'_965  and  P_977
REMARK  370  A    between atoms: C2'_966  and  O2'_967
REMARK  371  A    between atoms: C1'_968  and  N1_969
REMARK  372  A    between atoms: P_977  and  OP2_979
REMARK  373  A    between atoms: P_977  and  O5'_980
REMARK  374  A    between atoms: O5'_980  and  C5'_981
REMARK  375  A    between atoms: C5'_981  and  C4'_982
REMARK  376  A    between atoms: C3'_984  and  O3'_985
REMARK  377  A    between atoms: O3'_985  and  P_999
REMARK  378  A    between atoms: C2'_986  and  O2'_987
REMARK  379  A    between atoms: C1'_988  and  N9_989
REMARK  380  A    between atoms: P_999  and  OP2_1001
REMARK  381  A    between atoms: P_999  and  O5'_1002
REMARK  382  A    between atoms: O5'_1002  and  C5'_1003
REMARK  383  A    between atoms: C5'_1003  and  C4'_1004
REMARK  384  A    between atoms: C3'_1006  and  O3'_1007
REMARK  385  A    between atoms: O3'_1007  and  P_1019
REMARK  386  A    between atoms: C2'_1008  and  O2'_1009
REMARK  387  A    between atoms: C1'_1010  and  N1_1011
REMARK  388  A    between atoms: P_1019  and  OP2_1021
REMARK  389  A    between atoms: P_1019  and  O5'_1022
REMARK  390  A    between atoms: O5'_1022  and  C5'_1023
REMARK  391  A    between atoms: C5'_1023  and  C4'_1024
REMARK  392  A    between atoms: C3'_1026  and  O3'_1027
REMARK  393  A    between atoms: O3'_1027  and  P_1039
REMARK  394  A    between atoms: C2'_1028  and  O2'_1029
REMARK  395  A    between atoms: C1'_1030  and  N1_1031
REMARK  396  A    between atoms: P_1039  and  OP2_1041
REMARK  397  A    between atoms: P_1039  and  O5'_1042
REMARK  398  A    between atoms: O5'_1042  and  C5'_1043
REMARK  399  A    between atoms: C5'_1043  and  C4'_1044
REMARK  400  A    between atoms: C3'_1046  and  O3'_1047
REMARK  401  A    between atoms: O3'_1047  and  P_1059
REMARK  402  A    between atoms: C2'_1048  and  O2'_1049
REMARK  403  A    between atoms: C1'_1050  and  N1_1051
REMARK  404  A    between atoms: P_1059  and  OP2_1061
REMARK  405  A    between atoms: P_1059  and  O5'_1062
REMARK  406  A    between atoms: O5'_1062  and  C5'_1063
REMARK  407  A    between atoms: C5'_1063  and  C4'_1064
REMARK  408  A    between atoms: C3'_1066  and  O3'_1067
REMARK  409  A    between atoms: O3'_1067  and  P_1079
REMARK  410  A    between atoms: C2'_1068  and  O2'_1069
REMARK  411  A    between atoms: C1'_1070  and  N1_1071
REMARK  412  A    between atoms: P_1079  and  OP1_1080
REMARK  413  A    between atoms: P_1079  and  O5'_1082
REMARK  414  A    between atoms: O5'_1082  and  C5'_1083
REMARK  415  A    between atoms: C5'_1083  and  C4'_1084
REMARK  416  A    between atoms: C3'_1086  and  O3'_1087
REMARK  417  A    between atoms: O3'_1087  and  P_1101
REMARK  418  A    between atoms: C2'_1088  and  O2'_1089
REMARK  419  A    between atoms: C1'_1090  and  N9_1091
REMARK  420  A    between atoms: C6_1095  and  N6_1096
REMARK  421  A    between atoms: P_1101  and  OP1_1102
REMARK  422  A    between atoms: P_1101  and  O5'_1104
REMARK  423  A    between atoms: O5'_1104  and  C5'_1105
REMARK  424  A    between atoms: C5'_1105  and  C4'_1106
REMARK  425  A    between atoms: C3'_1108  and  O3'_1109
REMARK  426  A    between atoms: O3'_1109  and  P_1123
REMARK  427  A    between atoms: C2'_1110  and  O2'_1111
REMARK  428  A    between atoms: C1'_1112  and  N9_1113
REMARK  429  A    between atoms: C6_1117  and  N6_1118
REMARK  430  A    between atoms: P_1123  and  OP1_1124
REMARK  431  A    between atoms: P_1123  and  O5'_1126
REMARK  432  A    between atoms: O5'_1126  and  C5'_1127
REMARK  433  A    between atoms: C5'_1127  and  C4'_1128
REMARK  434  A    between atoms: C3'_1130  and  O3'_1131
REMARK  435  A    between atoms: O3'_1131  and  P_1145
REMARK  436  A    between atoms: C2'_1132  and  O2'_1133
REMARK  437  A    between atoms: C1'_1134  and  N9_1135
REMARK  438  A    between atoms: C6_1139  and  N6_1140
REMARK  439  A    between atoms: P_1145  and  OP1_1146
REMARK  440  A    between atoms: P_1145  and  O5'_1148
REMARK  441  A    between atoms: O5'_1148  and  C5'_1149
REMARK  442  A    between atoms: C5'_1149  and  C4'_1150
REMARK  443  A    between atoms: C3'_1152  and  O3'_1153
REMARK  444  A    between atoms: O3'_1153  and  P_1167
REMARK  445  A    between atoms: C2'_1154  and  O2'_1155
REMARK  446  A    between atoms: C1'_1156  and  N9_1157
REMARK  447  A    between atoms: C6_1161  and  N6_1162
REMARK  448  A    between atoms: P_1167  and  OP1_1168
REMARK  449  A    between atoms: P_1167  and  O5'_1170
REMARK  450  A    between atoms: O5'_1170  and  C5'_1171
REMARK  451  A    between atoms: C5'_1171  and  C4'_1172
REMARK  452  A    between atoms: C3'_1174  and  O3'_1175
REMARK  453  A    between atoms: O3'_1175  and  P_1189
REMARK  454  A    between atoms: C2'_1176  and  O2'_1177
REMARK  455  A    between atoms: C1'_1178  and  N9_1179
REMARK  456  A    between atoms: C6_1183  and  N6_1184
REMARK  457  A    between atoms: P_1189  and  OP1_1190
REMARK  458  A    between atoms: P_1189  and  O5'_1192
REMARK  459  A    between atoms: O5'_1192  and  C5'_1193
REMARK  460  A    between atoms: C5'_1193  and  C4'_1194
REMARK  461  A    between atoms: C3'_1196  and  O3'_1197
REMARK  462  A    between atoms: O3'_1197  and  P_1209
REMARK  463  A    between atoms: C2'_1198  and  O2'_1199
REMARK  464  A    between atoms: C1'_1200  and  N1_1201
REMARK  465  A    between atoms: P_1209  and  OP2_1211
REMARK  466  A    between atoms: P_1209  and  O5'_1212
REMARK  467  A    between atoms: O5'_1212  and  C5'_1213
REMARK  468  A    between atoms: C5'_1213  and  C4'_1214
REMARK  469  A    between atoms: C3'_1216  and  O3'_1217
REMARK  470  A    between atoms: O3'_1217  and  P_1231
REMARK  471  A    between atoms: C2'_1218  and  O2'_1219
REMARK  472  A    between atoms: C1'_1220  and  N9_1221
REMARK  473  A    between atoms: P_1231  and  OP2_1233
REMARK  474  A    between atoms: P_1231  and  O5'_1234
REMARK  475  A    between atoms: O5'_1234  and  C5'_1235
REMARK  476  A    between atoms: C5'_1235  and  C4'_1236
REMARK  477  A    between atoms: C3'_1238  and  O3'_1239
REMARK  478  A    between atoms: O3'_1239  and  P_1254
REMARK  479  A    between atoms: C2'_1240  and  O2'_1241
REMARK  480  A    between atoms: C1'_1242  and  N9_1243
REMARK  481  A    between atoms: P_1254  and  OP2_1256
REMARK  482  A    between atoms: P_1254  and  O5'_1257
REMARK  483  A    between atoms: O5'_1257  and  C5'_1258
REMARK  484  A    between atoms: C5'_1258  and  C4'_1259
REMARK  485  A    between atoms: C3'_1261  and  O3'_1262
REMARK  486  A    between atoms: O3'_1262  and  P_1276
REMARK  487  A    between atoms: C2'_1263  and  O2'_1264
REMARK  488  A    between atoms: C1'_1265  and  N9_1266
REMARK  489  A    between atoms: C6_1270  and  N6_1271
REMARK  490  A    between atoms: P_1276  and  OP1_1277
REMARK  491  A    between atoms: P_1276  and  O5'_1279
REMARK  492  A    between atoms: O5'_1279  and  C5'_1280
REMARK  493  A    between atoms: C5'_1280  and  C4'_1281
REMARK  494  A    between atoms: C3'_1283  and  O3'_1284
REMARK  495  A    between atoms: O3'_1284  and  P_1296
REMARK  496  A    between atoms: C2'_1285  and  O2'_1286
REMARK  497  A    between atoms: C1'_1287  and  N1_1288
REMARK  498  A    between atoms: P_1296  and  OP1_1297
REMARK  499  A    between atoms: P_1296  and  O5'_1299
REMARK  500  A    between atoms: O5'_1299  and  C5'_1300
REMARK  501  A    between atoms: C5'_1300  and  C4'_1301
REMARK  502  A    between atoms: C3'_1303  and  O3'_1304
REMARK  503  A    between atoms: O3'_1304  and  P_1316
REMARK  504  A    between atoms: C2'_1305  and  O2'_1306
REMARK  505  A    between atoms: C1'_1307  and  N1_1308
REMARK  506  A    between atoms: P_1316  and  OP1_1317
REMARK  507  A    between atoms: P_1316  and  O5'_1319
REMARK  508  A    between atoms: O5'_1319  and  C5'_1320
REMARK  509  A    between atoms: C5'_1320  and  C4'_1321
REMARK  510  A    between atoms: C3'_1323  and  O3'_1324
REMARK  511  A    between atoms: O3'_1324  and  P_1338
REMARK  512  A    between atoms: C2'_1325  and  O2'_1326
REMARK  513  A    between atoms: C1'_1327  and  N9_1328
REMARK  514  A    between atoms: C6_1332  and  N6_1333
REMARK  515  A    between atoms: P_1338  and  OP2_1340
REMARK  516  A    between atoms: P_1338  and  O5'_1341
REMARK  517  A    between atoms: O5'_1341  and  C5'_1342
REMARK  518  A    between atoms: C5'_1342  and  C4'_1343
REMARK  519  A    between atoms: C3'_1345  and  O3'_1346
REMARK  520  A    between atoms: O3'_1346  and  P_1358
REMARK  521  A    between atoms: C2'_1347  and  O2'_1348
REMARK  522  A    between atoms: C1'_1349  and  N1_1350
REMARK  523  A    between atoms: P_1358  and  OP2_1360
REMARK  524  A    between atoms: P_1358  and  O5'_1361
REMARK  525  A    between atoms: O5'_1361  and  C5'_1362
REMARK  526  A    between atoms: C5'_1362  and  C4'_1363
REMARK  527  A    between atoms: C3'_1365  and  O3'_1366
REMARK  528  A    between atoms: O3'_1366  and  P_1380
REMARK  529  A    between atoms: C2'_1367  and  O2'_1368
REMARK  530  A    between atoms: C1'_1369  and  N9_1370
REMARK  531  A    between atoms: P_1380  and  OP2_1382
REMARK  532  A    between atoms: P_1380  and  O5'_1383
REMARK  533  A    between atoms: O5'_1383  and  C5'_1384
REMARK  534  A    between atoms: C5'_1384  and  C4'_1385
REMARK  535  A    between atoms: C3'_1387  and  O3'_1388
REMARK  536  A    between atoms: O3'_1388  and  P_1402
REMARK  537  A    between atoms: C2'_1389  and  O2'_1390
REMARK  538  A    between atoms: C1'_1391  and  N9_1392
REMARK  539  A    between atoms: P_1402  and  OP2_1404
REMARK  540  A    between atoms: P_1402  and  O5'_1405
REMARK  541  A    between atoms: O5'_1405  and  C5'_1406
REMARK  542  A    between atoms: C5'_1406  and  C4'_1407
REMARK  543  A    between atoms: C3'_1409  and  O3'_1410
REMARK  544  A    between atoms: O3'_1410  and  P_1424
REMARK  545  A    between atoms: C2'_1411  and  O2'_1412
REMARK  546  A    between atoms: C1'_1413  and  N9_1414
REMARK  547  A    between atoms: P_1424  and  OP2_1426
REMARK  548  A    between atoms: P_1424  and  O5'_1427
REMARK  549  A    between atoms: O5'_1427  and  C5'_1428
REMARK  550  A    between atoms: C5'_1428  and  C4'_1429
REMARK  551  A    between atoms: C3'_1431  and  O3'_1432
REMARK  552  A    between atoms: O3'_1432  and  P_1446
REMARK  553  A    between atoms: C2'_1433  and  O2'_1434
REMARK  554  A    between atoms: C1'_1435  and  N9_1436
REMARK  555  A    between atoms: P_1446  and  OP1_1447
REMARK  556  A    between atoms: P_1446  and  O5'_1449
REMARK  557  A    between atoms: O5'_1449  and  C5'_1450
REMARK  558  A    between atoms: C5'_1450  and  C4'_1451
REMARK  559  A    between atoms: C3'_1453  and  O3'_1454
REMARK  560  A    between atoms: O3'_1454  and  P_1468
REMARK  561  A    between atoms: C2'_1455  and  O2'_1456
REMARK  562  A    between atoms: C1'_1457  and  N9_1458
REMARK  563  A    between atoms: P_1468  and  OP2_1470
REMARK  564  A    between atoms: P_1468  and  O5'_1471
REMARK  565  A    between atoms: O5'_1471  and  C5'_1472
REMARK  566  A    between atoms: C5'_1472  and  C4'_1473
REMARK  567  A    between atoms: C3'_1475  and  O3'_1476
REMARK  568  A    between atoms: O3'_1476  and  P_1488
REMARK  569  A    between atoms: C2'_1477  and  O2'_1478
REMARK  570  A    between atoms: C1'_1479  and  N1_1480
REMARK  571  A    between atoms: P_1488  and  OP1_1489
REMARK  572  A    between atoms: P_1488  and  O5'_1491
REMARK  573  A    between atoms: O5'_1491  and  C5'_1492
REMARK  574  A    between atoms: C5'_1492  and  C4'_1493
REMARK  575  A    between atoms: C3'_1495  and  O3'_1496
REMARK  576  A    between atoms: O3'_1496  and  P_1508
REMARK  577  A    between atoms: C2'_1497  and  O2'_1498
REMARK  578  A    between atoms: C1'_1499  and  N1_1500
REMARK  579  A    between atoms: P_1508  and  OP2_1510
REMARK  580  A    between atoms: P_1508  and  O5'_1511
REMARK  581  A    between atoms: O5'_1511  and  C5'_1512
REMARK  582  A    between atoms: C5'_1512  and  C4'_1513
REMARK  583  A    between atoms: C3'_1515  and  O3'_1516
REMARK  584  A    between atoms: O3'_1516  and  P_1528
REMARK  585  A    between atoms: C2'_1517  and  O2'_1518
REMARK  586  A    between atoms: C1'_1519  and  N1_1520
REMARK  587  A    between atoms: P_1528  and  OP1_1529
REMARK  588  A    between atoms: P_1528  and  O5'_1531
REMARK  589  A    between atoms: O5'_1531  and  C5'_1532
REMARK  590  A    between atoms: C5'_1532  and  C4'_1533
REMARK  591  A    between atoms: C3'_1535  and  O3'_1536
REMARK  592  A    between atoms: O3'_1536  and  P_1548
REMARK  593  A    between atoms: C2'_1537  and  O2'_1538
REMARK  594  A    between atoms: C1'_1539  and  N1_1540
REMARK  595  A    between atoms: P_1548  and  OP1_1549
REMARK  596  A    between atoms: P_1548  and  O5'_1551
REMARK  597  A    between atoms: O5'_1551  and  C5'_1552
REMARK  598  A    between atoms: C5'_1552  and  C4'_1553
REMARK  599  A    between atoms: C3'_1555  and  O3'_1556
REMARK  600  A    between atoms: O3'_1556  and  P_1568
REMARK  601  A    between atoms: C2'_1557  and  O2'_1558
REMARK  602  A    between atoms: C1'_1559  and  N1_1560
REMARK  603  A    between atoms: P_1568  and  OP1_1569
REMARK  604  A    between atoms: P_1568  and  O5'_1571
REMARK  605  A    between atoms: O5'_1571  and  C5'_1572
REMARK  606  A    between atoms: C5'_1572  and  C4'_1573
REMARK  607  A    between atoms: C3'_1575  and  O3'_1576
REMARK  608  A    between atoms: C2'_1577  and  O2'_1578
REMARK  609  A    between atoms: C1'_1579  and  N9_1580
REMARK  610  A    between atoms: C6_1584  and  N6_1585
REMARK                            x       y       z     vdW  Elec       q    Type
REMARK                         _______ _______ _______ _____ _____    ______ ____
ROOT
ATOM      1  P   U   B  39     -11.295  19.053  22.442  0.00  0.00    +0.000 P 
ATOM      2  OP2 U   B  39     -10.668  19.237  21.102  0.00  0.00    +0.000 OA
ENDROOT
BRANCH   1   3
ATOM      3  OP1 U   B  39     -12.755  18.823  22.554  0.00  0.00    +0.000 OA
ATOM      4  H   U   B  39     -13.006  18.065  22.004  0.00  0.00    +0.000 HD
ENDBRANCH   1   3
BRANCH   1   5
ATOM      5  O5' U   B  39     -10.923  20.294  23.350  0.00  0.00    +0.000 OA
BRANCH   5   6
ATOM      6  C5' U   B  39      -9.893  21.145  22.949  0.00  0.00    +0.000 C 
BRANCH   6   7
ATOM      7  C4' U   B  39      -9.377  21.983  24.098  0.00  0.00    +0.000 C 
ATOM      8  O4' U   B  39      -7.985  21.659  24.333  0.00  0.00    +0.000 OA
ATOM      9  C3' U   B  39      -9.395  23.477  23.850  0.00  0.00    +0.000 C 
ATOM     10  O3' U   B  39     -10.647  24.048  24.178  0.00  0.00    +0.000 OA
ATOM     11  C2' U   B  39      -8.253  23.987  24.695  0.00  0.00    +0.000 C 
ATOM     12  C1' U   B  39      -7.262  22.811  24.603  0.00  0.00    +0.000 C 
ATOM     13  P   C   B  40     -11.640  24.673  23.089  0.00  0.00    +0.000 P 
ATOM     14  OP2 C   B  40     -11.600  23.814  21.880  0.00  0.00    +0.000 OA
ATOM     15  O5' C   B  40     -10.904  26.040  22.741  0.00  0.00    +0.000 OA
ATOM     16  C5' C   B  40     -11.159  26.729  21.528  0.00  0.00    +0.000 C 
ATOM     17  C4' C   B  40     -11.121  28.217  21.739  0.00  0.00    +0.000 C 
ATOM     18  O4' C   B  40     -12.238  28.616  22.566  0.00  0.00    +0.000 OA
ATOM     19  C3' C   B  40      -9.901  28.746  22.467  0.00  0.00    +0.000 C 
ATOM     20  O3' C   B  40      -8.776  28.913  21.619  0.00  0.00    +0.000 OA
ATOM     21  C2' C   B  40     -10.409  30.052  23.058  0.00  0.00    +0.000 C 
ATOM     22  C1' C   B  40     -11.857  29.689  23.402  0.00  0.00    +0.000 C 
ATOM     23  P   U   B  41      -7.373  28.240  21.978  0.00  0.00    +0.000 P 
ATOM     24  OP1 U   B  41      -6.401  28.672  20.949  0.00  0.00    +0.000 OA
ATOM     25  O5' U   B  41      -6.965  28.923  23.359  0.00  0.00    +0.000 OA
ATOM     26  C5' U   B  41      -6.765  30.320  23.453  0.00  0.00    +0.000 C 
ATOM     27  C4' U   B  41      -6.795  30.779  24.889  0.00  0.00    +0.000 C 
ATOM     28  O4' U   B  41      -8.092  30.478  25.469  0.00  0.00    +0.000 OA
ATOM     29  C3' U   B  41      -5.803  30.101  25.816  0.00  0.00    +0.000 C 
ATOM     30  O3' U   B  41      -4.507  30.673  25.742  0.00  0.00    +0.000 OA
ATOM     31  C2' U   B  41      -6.456  30.257  27.182  0.00  0.00    +0.000 C 
ATOM     32  C1' U   B  41      -7.944  30.125  26.824  0.00  0.00    +0.000 C 
ATOM     33  P   U   B  42      -3.207  29.740  25.631  0.00  0.00    +0.000 P 
ATOM     34  OP2 U   B  42      -3.461  28.683  24.621  0.00  0.00    +0.000 OA
ATOM     35  O5' U   B  42      -3.139  29.052  27.065  0.00  0.00    +0.000 OA
ATOM     36  C5' U   B  42      -3.074  29.832  28.246  0.00  0.00    +0.000 C 
ATOM     37  C4' U   B  42      -3.433  29.013  29.460  0.00  0.00    +0.000 C 
ATOM     38  O4' U   B  42      -4.789  28.513  29.325  0.00  0.00    +0.000 OA
ATOM     39  C3' U   B  42      -2.599  27.765  29.684  0.00  0.00    +0.000 C 
ATOM     40  C2' U   B  42      -3.524  26.885  30.504  0.00  0.00    +0.000 C 
ATOM     41  C1' U   B  42      -4.891  27.227  29.896  0.00  0.00    +0.000 C 
ATOM     42  N1  U   B  42      -5.295  26.269  28.836  0.00  0.00    +0.000 N 
ATOM     43  C2  U   B  42      -5.892  25.087  29.234  0.00  0.00    +0.000 A 
ATOM     44  O2  U   B  42      -6.093  24.811  30.407  0.00  0.00    +0.000 OA
ATOM     45  N3  U   B  42      -6.247  24.237  28.215  0.00  0.00    +0.000 NA
ATOM     46  C4  U   B  42      -6.071  24.447  26.861  0.00  0.00    +0.000 A 
ATOM     47  O4  U   B  42      -6.445  23.588  26.062  0.00  0.00    +0.000 OA
ATOM     48  C5  U   B  42      -5.449  25.690  26.526  0.00  0.00    +0.000 A 
ATOM     49  C6  U   B  42      -5.091  26.539  27.501  0.00  0.00    +0.000 A 
BRANCH  22  50
ATOM     50  N1  C   B  40     -12.022  29.275  24.813  0.00  0.00    +0.000 N 
ATOM     51  C2  C   B  40     -11.977  30.254  25.811  0.00  0.00    +0.000 A 
ATOM     52  O2  C   B  40     -11.796  31.441  25.499  0.00  0.00    +0.000 OA
ATOM     53  N3  C   B  40     -12.137  29.881  27.105  0.00  0.00    +0.000 NA
ATOM     54  C4  C   B  40     -12.329  28.596  27.410  0.00  0.00    +0.000 A 
ATOM     55  N4  C   B  40     -12.477  28.281  28.698  0.00  0.00    +0.000 N 
ATOM     56  C5  C   B  40     -12.379  27.581  26.413  0.00  0.00    +0.000 A 
ATOM     57  C6  C   B  40     -12.225  27.962  25.136  0.00  0.00    +0.000 A 
ATOM     58  H   C   B  40     -12.621  27.344  28.962  0.00  0.00    +0.000 HD
ATOM     59  H   C   B  40     -12.443  28.986  29.384  0.00  0.00    +0.000 HD
ENDBRANCH  22  50
BRANCH  12  60
ATOM     60  N1  U   B  39      -6.258  23.008  23.529  0.00  0.00    +0.000 N 
ATOM     61  C2  U   B  39      -6.393  22.354  22.311  0.00  0.00    +0.000 A 
ATOM     62  O2  U   B  39      -7.311  21.594  22.012  0.00  0.00    +0.000 OA
ATOM     63  N3  U   B  39      -5.395  22.597  21.407  0.00  0.00    +0.000 N 
ATOM     64  C4  U   B  39      -4.298  23.410  21.582  0.00  0.00    +0.000 A 
ATOM     65  O4  U   B  39      -3.479  23.533  20.674  0.00  0.00    +0.000 OA
ATOM     66  C5  U   B  39      -4.231  24.044  22.856  0.00  0.00    +0.000 A 
ATOM     67  C6  U   B  39      -5.185  23.819  23.767  0.00  0.00    +0.000 A 
ATOM     68  H   U   B  39      -5.470  22.141  20.538  0.00  0.00    +0.000 HD
ENDBRANCH  12  60
BRANCH  32  69
ATOM     69  N1  U   B  41      -8.445  28.743  27.005  0.00  0.00    +0.000 N 
ATOM     70  C2  U   B  41      -8.794  28.350  28.281  0.00  0.00    +0.000 A 
ATOM     71  O2  U   B  41      -8.702  29.084  29.252  0.00  0.00    +0.000 OA
ATOM     72  N3  U   B  41      -9.260  27.061  28.389  0.00  0.00    +0.000 N 
ATOM     73  C4  U   B  41      -9.409  26.147  27.368  0.00  0.00    +0.000 A 
ATOM     74  O4  U   B  41      -9.843  25.021  27.623  0.00  0.00    +0.000 OA
ATOM     75  C5  U   B  41      -9.029  26.627  26.078  0.00  0.00    +0.000 A 
ATOM     76  C6  U   B  41      -8.574  27.880  25.944  0.00  0.00    +0.000 A 
ATOM     77  H   U   B  41      -9.514  26.759  29.291  0.00  0.00    +0.000 HD
ENDBRANCH  32  69
BRANCH  33  78
ATOM     78  OP1 U   B  42      -2.030  30.626  25.493  0.00  0.00    +0.000 OA
ATOM     79  H   U   B  42      -2.050  31.057  24.624  0.00  0.00    +0.000 HD
ENDBRANCH  33  78
BRANCH  40  80
ATOM     80  O2' U   B  42      -3.527  27.283  31.869  0.00  0.00    +0.000 OA
ATOM     81  H   U   B  42      -3.769  28.220  31.932  0.00  0.00    +0.000 HD
ENDBRANCH  40  80
BRANCH  31  82
ATOM     82  O2' U   B  41      -6.236  31.559  27.709  0.00  0.00    +0.000 OA
ATOM     83  H   U   B  41      -6.557  32.222  27.078  0.00  0.00    +0.000 HD
ENDBRANCH  31  82
BRANCH  23  84
ATOM     84  OP2 U   B  41      -7.599  26.798  22.222  0.00  0.00    +0.000 OA
ATOM     85  H   U   B  41      -7.849  26.365  21.391  0.00  0.00    +0.000 HD
ENDBRANCH  23  84
BRANCH  21  86
ATOM     86  O2' C   B  40     -10.412  31.085  22.094  0.00  0.00    +0.000 OA
ATOM     87  H   C   B  40     -10.940  30.811  21.328  0.00  0.00    +0.000 HD
ENDBRANCH  21  86
BRANCH  13  88
ATOM     88  OP1 C   B  40     -12.945  24.969  23.730  0.00  0.00    +0.000 OA
ATOM     89  H   C   B  40     -13.549  25.348  23.073  0.00  0.00    +0.000 HD
ENDBRANCH  13  88
BRANCH  11  90
ATOM     90  O2' U   B  39      -8.650  24.166  26.045  0.00  0.00    +0.000 OA
ATOM     91  H   U   B  39      -9.007  23.333  26.390  0.00  0.00    +0.000 HD
ENDBRANCH  11  90
BRANCH  39  92
ATOM     92  O3' U   B  42      -1.363  28.044  30.324  0.00  0.00    +0.000 OA
BRANCH  92  93
ATOM     93  P   A   B  43      -0.131  27.037  30.158  0.00  0.00    +0.000 P 
ATOM     94  OP2 A   B  43       0.086  26.773  28.722  0.00  0.00    +0.000 OA
BRANCH  93  95
ATOM     95  OP1 A   B  43       0.999  27.546  30.983  0.00  0.00    +0.000 OA
ATOM     96  H   A   B  43       1.346  28.361  30.588  0.00  0.00    +0.000 HD
ENDBRANCH  93  95
BRANCH  93  97
ATOM     97  O5' A   B  43      -0.671  25.706  30.834  0.00  0.00    +0.000 OA
BRANCH  97  98
ATOM     98  C5' A   B  43      -0.256  24.435  30.378  0.00  0.00    +0.000 C 
BRANCH  98  99
ATOM     99  C4' A   B  43      -1.437  23.535  30.142  0.00  0.00    +0.000 C 
ATOM    100  O4' A   B  43      -2.202  24.018  29.008  0.00  0.00    +0.000 OA
ATOM    101  C3' A   B  43      -1.113  22.090  29.781  0.00  0.00    +0.000 C 
ATOM    102  C2' A   B  43      -2.355  21.644  29.022  0.00  0.00    +0.000 C 
ATOM    103  C1' A   B  43      -2.740  22.933  28.280  0.00  0.00    +0.000 C 
BRANCH 103 104
ATOM    104  N9  A   B  43      -2.204  22.981  26.907  0.00  0.00    +0.000 N 
ATOM    105  C8  A   B  43      -1.341  23.910  26.381  0.00  0.00    +0.000 A 
ATOM    106  N7  A   B  43      -1.037  23.697  25.121  0.00  0.00    +0.000 NA
ATOM    107  C5  A   B  43      -1.752  22.552  24.794  0.00  0.00    +0.000 A 
ATOM    108  C6  A   B  43      -1.864  21.811  23.606  0.00  0.00    +0.000 A 
ATOM    109  N1  A   B  43      -2.662  20.719  23.612  0.00  0.00    +0.000 NA
ATOM    110  C2  A   B  43      -3.306  20.402  24.745  0.00  0.00    +0.000 A 
ATOM    111  N3  A   B  43      -3.281  21.023  25.923  0.00  0.00    +0.000 NA
ATOM    112  C4  A   B  43      -2.478  22.102  25.880  0.00  0.00    +0.000 A 
BRANCH 108 113
ATOM    113  N6  A   B  43      -1.220  22.127  22.469  0.00  0.00    +0.000 N 
ATOM    114  H   A   B  43      -1.337  21.570  21.666  0.00  0.00    +0.000 HD
ATOM    115  H   A   B  43      -0.631  22.916  22.440  0.00  0.00    +0.000 HD
ENDBRANCH 108 113
ENDBRANCH 103 104
BRANCH 102 116
ATOM    116  O2' A   B  43      -3.404  21.309  29.917  0.00  0.00    +0.000 OA
ATOM    117  H   A   B  43      -3.587  22.064  30.498  0.00  0.00    +0.000 HD
ENDBRANCH 102 116
BRANCH 101 118
ATOM    118  O3' A   B  43      -0.834  21.301  30.927  0.00  0.00    +0.000 OA
BRANCH 118 119
ATOM    119  P   C   B  44       0.507  20.465  31.033  0.00  0.00    +0.000 P 
ATOM    120  OP2 C   B  44       1.615  21.273  30.457  0.00  0.00    +0.000 OA
BRANCH 119 121
ATOM    121  OP1 C   B  44       0.612  19.937  32.416  0.00  0.00    +0.000 OA
ATOM    122  H   C   B  44       1.428  19.420  32.504  0.00  0.00    +0.000 HD
ENDBRANCH 119 121
BRANCH 119 123
ATOM    123  O5' C   B  44       0.218  19.243  30.056  0.00  0.00    +0.000 OA
BRANCH 123 124
ATOM    124  C5' C   B  44      -0.936  18.441  30.219  0.00  0.00    +0.000 C 
BRANCH 124 125
ATOM    125  C4' C   B  44      -1.256  17.683  28.955  0.00  0.00    +0.000 C 
ATOM    126  O4' C   B  44      -1.596  18.617  27.894  0.00  0.00    +0.000 OA
ATOM    127  C3' C   B  44      -0.114  16.860  28.381  0.00  0.00    +0.000 C 
ATOM    128  C2' C   B  44      -0.480  16.759  26.904  0.00  0.00    +0.000 C 
ATOM    129  C1' C   B  44      -1.121  18.134  26.654  0.00  0.00    +0.000 C 
BRANCH 129 130
ATOM    130  N1  C   B  44      -0.162  19.122  26.104  0.00  0.00    +0.000 N 
ATOM    131  C2  C   B  44       0.129  19.088  24.737  0.00  0.00    +0.000 A 
ATOM    132  O2  C   B  44      -0.414  18.233  24.022  0.00  0.00    +0.000 OA
ATOM    133  N3  C   B  44       1.004  19.997  24.227  0.00  0.00    +0.000 NA
ATOM    134  C4  C   B  44       1.571  20.910  25.024  0.00  0.00    +0.000 A 
ATOM    135  N4  C   B  44       2.421  21.779  24.472  0.00  0.00    +0.000 N 
ATOM    136  C5  C   B  44       1.288  20.964  26.418  0.00  0.00    +0.000 A 
ATOM    137  C6  C   B  44       0.425  20.062  26.911  0.00  0.00    +0.000 A 
ATOM    138  H   C   B  44       2.612  21.736  23.507  0.00  0.00    +0.000 HD
ATOM    139  H   C   B  44       2.857  22.463  25.030  0.00  0.00    +0.000 HD
ENDBRANCH 129 130
BRANCH 128 140
ATOM    140  O2' C   B  44      -1.465  15.758  26.689  0.00  0.00    +0.000 OA
ATOM    141  H   C   B  44      -2.241  15.944  27.241  0.00  0.00    +0.000 HD
ENDBRANCH 128 140
BRANCH 127 142
ATOM    142  O3' C   B  44       0.010  15.604  29.027  0.00  0.00    +0.000 OA
BRANCH 142 143
ATOM    143  P   U   B  45       1.094  14.529  28.645  0.00  0.00    +0.000 P 
ATOM    144  OP2 U   B  45       2.039  15.117  27.669  0.00  0.00    +0.000 OA
BRANCH 143 145
ATOM    145  OP1 U   B  45       1.607  13.915  29.898  0.00  0.00    +0.000 OA
ATOM    146  H   U   B  45       2.278  13.249  29.681  0.00  0.00    +0.000 HD
ENDBRANCH 143 145
BRANCH 143 147
ATOM    147  O5' U   B  45       0.194  13.440  27.898  0.00  0.00    +0.000 OA
BRANCH 147 148
ATOM    148  C5' U   B  45      -0.998  12.963  28.491  0.00  0.00    +0.000 C 
BRANCH 148 149
ATOM    149  C4' U   B  45      -1.791  12.110  27.535  0.00  0.00    +0.000 C 
ATOM    150  O4' U   B  45      -2.175  12.891  26.369  0.00  0.00    +0.000 OA
ATOM    151  C3' U   B  45      -1.056  10.914  26.954  0.00  0.00    +0.000 C 
ATOM    152  C2' U   B  45      -1.811  10.650  25.658  0.00  0.00    +0.000 C 
ATOM    153  C1' U   B  45      -2.162  12.080  25.213  0.00  0.00    +0.000 C 
BRANCH 153 154
ATOM    154  N1  U   B  45      -1.170  12.628  24.259  0.00  0.00    +0.000 N 
ATOM    155  C2  U   B  45      -1.227  12.192  22.948  0.00  0.00    +0.000 A 
ATOM    156  O2  U   B  45      -2.041  11.379  22.552  0.00  0.00    +0.000 OA
ATOM    157  N3  U   B  45      -0.287  12.744  22.112  0.00  0.00    +0.000 N 
ATOM    158  C4  U   B  45       0.683  13.670  22.446  0.00  0.00    +0.000 A 
ATOM    159  O4  U   B  45       1.458  14.072  21.573  0.00  0.00    +0.000 OA
ATOM    160  C5  U   B  45       0.676  14.072  23.819  0.00  0.00    +0.000 A 
ATOM    161  C6  U   B  45      -0.232  13.553  24.657  0.00  0.00    +0.000 A 
ATOM    162  H   U   B  45      -0.306  12.448  21.173  0.00  0.00    +0.000 HD
ENDBRANCH 153 154
BRANCH 152 163
ATOM    163  O2' U   B  45      -3.017   9.944  25.913  0.00  0.00    +0.000 OA
ATOM    164  H   U   B  45      -3.552  10.438  26.554  0.00  0.00    +0.000 HD
ENDBRANCH 152 163
BRANCH 151 165
ATOM    165  O3' U   B  45      -1.034   9.803  27.835  0.00  0.00    +0.000 OA
BRANCH 165 166
ATOM    166  P   U   B  46       0.255   8.871  27.932  0.00  0.00    +0.000 P 
ATOM    167  OP2 U   B  46       1.458   9.737  27.844  0.00  0.00    +0.000 OA
BRANCH 166 168
ATOM    168  OP1 U   B  46       0.085   7.957  29.094  0.00  0.00    +0.000 OA
ATOM    169  H   U   B  46      -0.746   7.465  29.000  0.00  0.00    +0.000 HD
ENDBRANCH 166 168
BRANCH 166 170
ATOM    170  O5' U   B  46       0.158   7.995  26.605  0.00  0.00    +0.000 OA
BRANCH 170 171
ATOM    171  C5' U   B  46      -0.954   7.149  26.367  0.00  0.00    +0.000 C 
BRANCH 171 172
ATOM    172  C4' U   B  46      -1.063   6.761  24.913  0.00  0.00    +0.000 C 
ATOM    173  O4' U   B  46      -1.230   7.955  24.094  0.00  0.00    +0.000 OA
ATOM    174  C3' U   B  46       0.153   6.074  24.315  0.00  0.00    +0.000 C 
ATOM    175  C2' U   B  46      -0.006   6.355  22.827  0.00  0.00    +0.000 C 
ATOM    176  C1' U   B  46      -0.580   7.781  22.851  0.00  0.00    +0.000 C 
BRANCH 176 177
ATOM    177  N1  U   B  46       0.484   8.806  22.722  0.00  0.00    +0.000 N 
ATOM    178  C2  U   B  46       0.942   9.093  21.446  0.00  0.00    +0.000 A 
ATOM    179  O2  U   B  46       0.512   8.541  20.450  0.00  0.00    +0.000 OA
ATOM    180  N3  U   B  46       1.925  10.053  21.379  0.00  0.00    +0.000 N 
ATOM    181  C4  U   B  46       2.486  10.740  22.436  0.00  0.00    +0.000 A 
ATOM    182  O4  U   B  46       3.366  11.579  22.218  0.00  0.00    +0.000 OA
ATOM    183  C5  U   B  46       1.961  10.388  23.724  0.00  0.00    +0.000 A 
ATOM    184  C6  U   B  46       1.003   9.457  23.818  0.00  0.00    +0.000 A 
ATOM    185  H   U   B  46       2.264  10.273  20.481  0.00  0.00    +0.000 HD
ENDBRANCH 176 177
BRANCH 175 186
ATOM    186  O2' U   B  46      -0.975   5.494  22.247  0.00  0.00    +0.000 OA
ATOM    187  H   U   B  46      -1.814   5.583  22.725  0.00  0.00    +0.000 HD
ENDBRANCH 175 186
BRANCH 174 188
ATOM    188  O3' U   B  46       0.215   4.692  24.630  0.00  0.00    +0.000 OA
BRANCH 188 189
ATOM    189  P   U   B  47       1.623   3.955  24.703  0.00  0.00    +0.000 P 
ATOM    190  OP1 U   B  47       1.407   2.614  25.304  0.00  0.00    +0.000 OA
BRANCH 189 191
ATOM    191  OP2 U   B  47       2.612   4.887  25.310  0.00  0.00    +0.000 OA
ATOM    192  H   U   B  47       2.632   5.713  24.802  0.00  0.00    +0.000 HD
ENDBRANCH 189 191
BRANCH 189 193
ATOM    193  O5' U   B  47       1.996   3.756  23.164  0.00  0.00    +0.000 OA
BRANCH 193 194
ATOM    194  C5' U   B  47       1.171   2.988  22.309  0.00  0.00    +0.000 C 
BRANCH 194 195
ATOM    195  C4' U   B  47       1.493   3.219  20.849  0.00  0.00    +0.000 C 
ATOM    196  O4' U   B  47       1.330   4.629  20.519  0.00  0.00    +0.000 OA
ATOM    197  C3' U   B  47       2.918   2.910  20.424  0.00  0.00    +0.000 C 
ATOM    198  C2' U   B  47       3.074   3.750  19.162  0.00  0.00    +0.000 C 
ATOM    199  C1' U   B  47       2.271   5.006  19.535  0.00  0.00    +0.000 C 
BRANCH 199 200
ATOM    200  N1  U   B  47       3.138   6.073  20.086  0.00  0.00    +0.000 N 
ATOM    201  C2  U   B  47       3.827   6.867  19.178  0.00  0.00    +0.000 A 
ATOM    202  O2  U   B  47       3.748   6.715  17.974  0.00  0.00    +0.000 OA
ATOM    203  N3  U   B  47       4.613   7.847  19.739  0.00  0.00    +0.000 N 
ATOM    204  C4  U   B  47       4.780   8.107  21.084  0.00  0.00    +0.000 A 
ATOM    205  O4  U   B  47       5.526   9.026  21.438  0.00  0.00    +0.000 OA
ATOM    206  C5  U   B  47       4.038   7.246  21.958  0.00  0.00    +0.000 A 
ATOM    207  C6  U   B  47       3.263   6.283  21.440  0.00  0.00    +0.000 A 
ATOM    208  H   U   B  47       5.109   8.424  19.114  0.00  0.00    +0.000 HD
ENDBRANCH 199 200
BRANCH 198 209
ATOM    209  O2' U   B  47       2.446   3.130  18.054  0.00  0.00    +0.000 OA
ATOM    210  H   U   B  47       1.514   2.963  18.263  0.00  0.00    +0.000 HD
ENDBRANCH 198 209
BRANCH 197 211
ATOM    211  O3' U   B  47       3.143   1.526  20.208  0.00  0.00    +0.000 OA
BRANCH 211 212
ATOM    212  P   A   B  48       4.610   0.914  20.401  0.00  0.00    +0.000 P 
ATOM    213  OP1 A   B  48       4.497  -0.563  20.366  0.00  0.00    +0.000 OA
BRANCH 212 214
ATOM    214  OP2 A   B  48       5.248   1.579  21.565  0.00  0.00    +0.000 OA
ATOM    215  H   A   B  48       5.242   2.540  21.432  0.00  0.00    +0.000 HD
ENDBRANCH 212 214
BRANCH 212 216
ATOM    216  O5' A   B  48       5.364   1.383  19.077  0.00  0.00    +0.000 OA
BRANCH 216 217
ATOM    217  C5' A   B  48       4.920   0.966  17.802  0.00  0.00    +0.000 C 
BRANCH 217 218
ATOM    218  C4' A   B  48       5.545   1.785  16.695  0.00  0.00    +0.000 C 
ATOM    219  O4' A   B  48       5.196   3.185  16.858  0.00  0.00    +0.000 OA
ATOM    220  C3' A   B  48       7.063   1.789  16.650  0.00  0.00    +0.000 C 
ATOM    221  C2' A   B  48       7.365   3.080  15.901  0.00  0.00    +0.000 C 
ATOM    222  C1' A   B  48       6.265   4.005  16.433  0.00  0.00    +0.000 C 
BRANCH 222 223
ATOM    223  N9  A   B  48       6.725   4.808  17.584  0.00  0.00    +0.000 N 
ATOM    224  C8  A   B  48       6.489   4.589  18.922  0.00  0.00    +0.000 A 
ATOM    225  N7  A   B  48       7.030   5.491  19.709  0.00  0.00    +0.000 NA
ATOM    226  C5  A   B  48       7.668   6.361  18.835  0.00  0.00    +0.000 A 
ATOM    227  C6  A   B  48       8.426   7.527  19.041  0.00  0.00    +0.000 A 
ATOM    228  N6  A   B  48       8.683   8.042  20.251  0.00  0.00    +0.000 N 
ATOM    229  N1  A   B  48       8.920   8.157  17.951  0.00  0.00    +0.000 NA
ATOM    230  C2  A   B  48       8.667   7.644  16.738  0.00  0.00    +0.000 A 
ATOM    231  N3  A   B  48       7.966   6.553  16.416  0.00  0.00    +0.000 NA
ATOM    232  C4  A   B  48       7.491   5.952  17.523  0.00  0.00    +0.000 A 
ATOM    233  H   A   B  48       9.221   8.863  20.333  0.00  0.00    +0.000 HD
ATOM    234  H   A   B  48       8.334   7.600  21.058  0.00  0.00    +0.000 HD
ENDBRANCH 222 223
BRANCH 221 235
ATOM    235  O2' A   B  48       7.175   2.916  14.505  0.00  0.00    +0.000 OA
ATOM    236  H   A   B  48       6.272   2.604  14.336  0.00  0.00    +0.000 HD
ENDBRANCH 221 235
BRANCH 220 237
ATOM    237  O3' A   B  48       7.604   0.637  16.020  0.00  0.00    +0.000 OA
BRANCH 237 238
ATOM    238  P   U   B  49       9.041   0.092  16.453  0.00  0.00    +0.000 P 
ATOM    239  OP1 U   B  49       9.214  -1.244  15.832  0.00  0.00    +0.000 OA
BRANCH 238 240
ATOM    240  OP2 U   B  49       9.184   0.246  17.923  0.00  0.00    +0.000 OA
ATOM    241  H   U   B  49      10.054  -0.082  18.199  0.00  0.00    +0.000 HD
ENDBRANCH 238 240
BRANCH 238 242
ATOM    242  O5' U   B  49      10.045   1.102  15.741  0.00  0.00    +0.000 OA
BRANCH 242 243
ATOM    243  C5' U   B  49      10.060   1.252  14.333  0.00  0.00    +0.000 C 
BRANCH 243 244
ATOM    244  C4' U   B  49      10.837   2.474  13.906  0.00  0.00    +0.000 C 
ATOM    245  O4' U   B  49      10.219   3.669  14.454  0.00  0.00    +0.000 OA
ATOM    246  C3' U   B  49      12.273   2.544  14.392  0.00  0.00    +0.000 C 
ATOM    247  C2' U   B  49      12.563   4.037  14.338  0.00  0.00    +0.000 C 
ATOM    248  C1' U   B  49      11.212   4.624  14.767  0.00  0.00    +0.000 C 
BRANCH 248 249
ATOM    249  N1  U   B  49      11.165   4.893  16.224  0.00  0.00    +0.000 N 
ATOM    250  C2  U   B  49      11.730   6.077  16.676  0.00  0.00    +0.000 A 
ATOM    251  O2  U   B  49      12.257   6.885  15.933  0.00  0.00    +0.000 OA
ATOM    252  N3  U   B  49      11.653   6.279  18.035  0.00  0.00    +0.000 N 
ATOM    253  C4  U   B  49      11.083   5.437  18.967  0.00  0.00    +0.000 A 
ATOM    254  O4  U   B  49      11.089   5.756  20.161  0.00  0.00    +0.000 OA
ATOM    255  C5  U   B  49      10.524   4.239  18.427  0.00  0.00    +0.000 A 
ATOM    256  C6  U   B  49      10.585   4.014  17.105  0.00  0.00    +0.000 A 
ATOM    257  H   U   B  49      12.047   7.113  18.379  0.00  0.00    +0.000 HD
ENDBRANCH 248 249
BRANCH 247 258
ATOM    258  O2' U   B  49      12.832   4.462  13.011  0.00  0.00    +0.000 OA
ATOM    259  H   U   B  49      12.088   4.221  12.437  0.00  0.00    +0.000 HD
ENDBRANCH 247 258
BRANCH 246 260
ATOM    260  O3' U   B  49      13.163   1.769  13.604  0.00  0.00    +0.000 OA
BRANCH 260 261
ATOM    261  P   U   B  50      14.433   1.084  14.286  0.00  0.00    +0.000 P 
ATOM    262  OP1 U   B  50      15.037   0.167  13.290  0.00  0.00    +0.000 OA
BRANCH 261 263
ATOM    263  OP2 U   B  50      14.028   0.569  15.616  0.00  0.00    +0.000 OA
ATOM    264  H   U   B  50      13.420  -0.178  15.502  0.00  0.00    +0.000 HD
ENDBRANCH 261 263
BRANCH 261 265
ATOM    265  O5' U   B  50      15.429   2.307  14.503  0.00  0.00    +0.000 OA
BRANCH 265 266
ATOM    266  C5' U   B  50      15.914   3.060  13.405  0.00  0.00    +0.000 C 
BRANCH 266 267
ATOM    267  C4' U   B  50      16.578   4.340  13.854  0.00  0.00    +0.000 C 
ATOM    268  O4' U   B  50      15.608   5.186  14.531  0.00  0.00    +0.000 OA
ATOM    269  C3' U   B  50      17.701   4.183  14.862  0.00  0.00    +0.000 C 
ATOM    270  C2' U   B  50      17.740   5.550  15.525  0.00  0.00    +0.000 C 
ATOM    271  C1' U   B  50      16.247   5.908  15.564  0.00  0.00    +0.000 C 
BRANCH 271 272
ATOM    272  N1  U   B  50      15.622   5.536  16.855  0.00  0.00    +0.000 N 
ATOM    273  C2  U   B  50      15.778   6.412  17.915  0.00  0.00    +0.000 A 
ATOM    274  O2  U   B  50      16.398   7.456  17.829  0.00  0.00    +0.000 OA
ATOM    275  N3  U   B  50      15.172   6.020  19.086  0.00  0.00    +0.000 N 
ATOM    276  C4  U   B  50      14.450   4.866  19.302  0.00  0.00    +0.000 A 
ATOM    277  O4  U   B  50      13.966   4.649  20.416  0.00  0.00    +0.000 OA
ATOM    278  C5  U   B  50      14.338   4.014  18.161  0.00  0.00    +0.000 A 
ATOM    279  C6  U   B  50      14.915   4.370  17.005  0.00  0.00    +0.000 A 
ATOM    280  H   U   B  50      15.264   6.630  19.853  0.00  0.00    +0.000 HD
ENDBRANCH 271 272
BRANCH 270 281
ATOM    281  O2' U   B  50      18.404   6.499  14.704  0.00  0.00    +0.000 OA
ATOM    282  H   U   B  50      17.974   6.532  13.835  0.00  0.00    +0.000 HD
ENDBRANCH 270 281
BRANCH 269 283
ATOM    283  O3' U   B  50      18.932   3.810  14.265  0.00  0.00    +0.000 OA
BRANCH 283 284
ATOM    284  P   U   B  51      19.952   2.889  15.073  0.00  0.00    +0.000 P 
ATOM    285  OP1 U   B  51      21.029   2.485  14.139  0.00  0.00    +0.000 OA
BRANCH 284 286
ATOM    286  OP2 U   B  51      19.175   1.851  15.795  0.00  0.00    +0.000 OA
ATOM    287  H   U   B  51      18.790   1.232  15.155  0.00  0.00    +0.000 HD
ENDBRANCH 284 286
BRANCH 284 288
ATOM    288  O5' U   B  51      20.571   3.888  16.145  0.00  0.00    +0.000 OA
BRANCH 288 289
ATOM    289  C5' U   B  51      21.277   5.049  15.739  0.00  0.00    +0.000 C 
BRANCH 289 290
ATOM    290  C4' U   B  51      21.483   6.009  16.887  0.00  0.00    +0.000 C 
ATOM    291  O4' U   B  51      20.196   6.462  17.388  0.00  0.00    +0.000 OA
ATOM    292  C3' U   B  51      22.174   5.436  18.110  0.00  0.00    +0.000 C 
ATOM    293  C2' U   B  51      21.715   6.371  19.217  0.00  0.00    +0.000 C 
ATOM    294  C1' U   B  51      20.271   6.666  18.784  0.00  0.00    +0.000 C 
BRANCH 294 295
ATOM    295  N1  U   B  51      19.296   5.761  19.442  0.00  0.00    +0.000 N 
ATOM    296  C2  U   B  51      18.890   6.087  20.723  0.00  0.00    +0.000 A 
ATOM    297  O2  U   B  51      19.299   7.069  21.317  0.00  0.00    +0.000 OA
ATOM    298  N3  U   B  51      17.981   5.220  21.284  0.00  0.00    +0.000 N 
ATOM    299  C4  U   B  51      17.455   4.085  20.709  0.00  0.00    +0.000 A 
ATOM    300  O4  U   B  51      16.646   3.403  21.343  0.00  0.00    +0.000 OA
ATOM    301  C5  U   B  51      17.925   3.815  19.387  0.00  0.00    +0.000 A 
ATOM    302  C6  U   B  51      18.807   4.642  18.813  0.00  0.00    +0.000 A 
ATOM    303  H   U   B  51      17.674   5.434  22.194  0.00  0.00    +0.000 HD
ENDBRANCH 294 295
BRANCH 293 304
ATOM    304  O2' U   B  51      22.441   7.588  19.192  0.00  0.00    +0.000 OA
ATOM    305  H   U   B  51      22.357   7.997  18.316  0.00  0.00    +0.000 HD
ENDBRANCH 293 304
BRANCH 292 306
ATOM    306  O3' U   B  51      23.584   5.376  17.967  0.00  0.00    +0.000 OA
BRANCH 306 307
ATOM    307  P   U   B  52      24.400   4.203  18.668  0.00  0.00    +0.000 P 
ATOM    308  OP1 U   B  52      25.789   4.251  18.163  0.00  0.00    +0.000 OA
BRANCH 307 309
ATOM    309  OP2 U   B  52      23.613   2.948  18.546  0.00  0.00    +0.000 OA
ATOM    310  H   U   B  52      23.596   2.666  17.618  0.00  0.00    +0.000 HD
ENDBRANCH 307 309
BRANCH 307 311
ATOM    311  O5' U   B  52      24.409   4.637  20.199  0.00  0.00    +0.000 OA
BRANCH 311 312
ATOM    312  C5' U   B  52      24.981   5.871  20.604  0.00  0.00    +0.000 C 
BRANCH 312 313
ATOM    313  C4' U   B  52      24.660   6.191  22.044  0.00  0.00    +0.000 C 
ATOM    314  O4' U   B  52      23.235   6.434  22.191  0.00  0.00    +0.000 OA
ATOM    315  C3' U   B  52      24.947   5.086  23.043  0.00  0.00    +0.000 C 
ATOM    316  C2' U   B  52      24.026   5.440  24.200  0.00  0.00    +0.000 C 
ATOM    317  C1' U   B  52      22.796   5.975  23.453  0.00  0.00    +0.000 C 
BRANCH 317 318
ATOM    318  N1  U   B  52      21.773   4.923  23.235  0.00  0.00    +0.000 N 
ATOM    319  C2  U   B  52      20.890   4.673  24.271  0.00  0.00    +0.000 A 
ATOM    320  O2  U   B  52      20.922   5.277  25.330  0.00  0.00    +0.000 OA
ATOM    321  N3  U   B  52      19.958   3.693  24.019  0.00  0.00    +0.000 N 
ATOM    322  C4  U   B  52      19.829   2.950  22.865  0.00  0.00    +0.000 A 
ATOM    323  O4  U   B  52      18.942   2.099  22.788  0.00  0.00    +0.000 OA
ATOM    324  C5  U   B  52      20.781   3.264  21.844  0.00  0.00    +0.000 A 
ATOM    325  C6  U   B  52      21.696   4.215  22.061  0.00  0.00    +0.000 A 
ATOM    326  H   U   B  52      19.315   3.502  24.739  0.00  0.00    +0.000 HD
ENDBRANCH 317 318
BRANCH 316 327
ATOM    327  O2' U   B  52      24.567   6.492  24.978  0.00  0.00    +0.000 OA
ATOM    328  H   U   B  52      24.743   7.257  24.409  0.00  0.00    +0.000 HD
ENDBRANCH 316 327
BRANCH 315 329
ATOM    329  O3' U   B  52      26.316   5.014  23.403  0.00  0.00    +0.000 OA
BRANCH 329 330
ATOM    330  P   A   B  53      26.991   3.590  23.642  0.00  0.00    +0.000 P 
ATOM    331  OP2 A   B  53      26.425   2.625  22.666  0.00  0.00    +0.000 OA
BRANCH 330 332
ATOM    332  OP1 A   B  53      28.456   3.789  23.716  0.00  0.00    +0.000 OA
ATOM    333  H   A   B  53      28.794   4.031  22.840  0.00  0.00    +0.000 HD
ENDBRANCH 330 332
BRANCH 330 334
ATOM    334  O5' A   B  53      26.467   3.195  25.091  0.00  0.00    +0.000 OA
BRANCH 334 335
ATOM    335  C5' A   B  53      26.746   4.021  26.212  0.00  0.00    +0.000 C 
BRANCH 335 336
ATOM    336  C4' A   B  53      25.937   3.608  27.418  0.00  0.00    +0.000 C 
ATOM    337  O4' A   B  53      24.533   3.910  27.202  0.00  0.00    +0.000 OA
ATOM    338  C3' A   B  53      25.944   2.125  27.742  0.00  0.00    +0.000 C 
ATOM    339  C2' A   B  53      24.672   1.964  28.560  0.00  0.00    +0.000 C 
ATOM    340  C1' A   B  53      23.731   2.939  27.842  0.00  0.00    +0.000 C 
BRANCH 340 341
ATOM    341  N9  A   B  53      22.909   2.264  26.819  0.00  0.00    +0.000 N 
ATOM    342  C8  A   B  53      23.137   2.172  25.470  0.00  0.00    +0.000 A 
ATOM    343  N7  A   B  53      22.209   1.500  24.825  0.00  0.00    +0.000 NA
ATOM    344  C5  A   B  53      21.312   1.123  25.816  0.00  0.00    +0.000 A 
ATOM    345  C6  A   B  53      20.114   0.391  25.787  0.00  0.00    +0.000 A 
ATOM    346  N1  A   B  53      19.466   0.196  26.953  0.00  0.00    +0.000 NA
ATOM    347  C2  A   B  53      19.991   0.705  28.074  0.00  0.00    +0.000 A 
ATOM    348  N3  A   B  53      21.113   1.414  28.231  0.00  0.00    +0.000 NA
ATOM    349  C4  A   B  53      21.732   1.588  27.049  0.00  0.00    +0.000 A 
BRANCH 345 350
ATOM    350  N6  A   B  53      19.586  -0.122  24.668  0.00  0.00    +0.000 N 
ATOM    351  H   A   B  53      20.041   0.007  23.805  0.00  0.00    +0.000 HD
ATOM    352  H   A   B  53      18.743  -0.628  24.709  0.00  0.00    +0.000 HD
ENDBRANCH 345 350
ENDBRANCH 340 341
BRANCH 339 353
ATOM    353  O2' A   B  53      24.860   2.418  29.891  0.00  0.00    +0.000 OA
ATOM    354  H   A   B  53      25.169   3.337  29.878  0.00  0.00    +0.000 HD
ENDBRANCH 339 353
BRANCH 338 355
ATOM    355  O3' A   B  53      27.117   1.712  28.424  0.00  0.00    +0.000 OA
BRANCH 355 356
ATOM    356  P   A   B  54      27.753   0.281  28.110  0.00  0.00    +0.000 P 
ATOM    357  OP2 A   B  54      27.528  -0.038  26.677  0.00  0.00    +0.000 OA
BRANCH 356 358
ATOM    358  OP1 A   B  54      29.129   0.268  28.660  0.00  0.00    +0.000 OA
ATOM    359  H   A   B  54      29.691   0.863  28.139  0.00  0.00    +0.000 HD
ENDBRANCH 356 358
BRANCH 356 360
ATOM    360  O5' A   B  54      26.858  -0.703  28.984  0.00  0.00    +0.000 OA
BRANCH 360 361
ATOM    361  C5' A   B  54      26.776  -0.542  30.391  0.00  0.00    +0.000 C 
BRANCH 361 362
ATOM    362  C4' A   B  54      25.594  -1.287  30.966  0.00  0.00    +0.000 C 
ATOM    363  O4' A   B  54      24.358  -0.719  30.459  0.00  0.00    +0.000 OA
ATOM    364  C3' A   B  54      25.495  -2.756  30.598  0.00  0.00    +0.000 C 
ATOM    365  C2' A   B  54      24.019  -3.042  30.814  0.00  0.00    +0.000 C 
ATOM    366  C1' A   B  54      23.389  -1.739  30.312  0.00  0.00    +0.000 C 
BRANCH 366 367
ATOM    367  N9  A   B  54      23.012  -1.828  28.889  0.00  0.00    +0.000 N 
ATOM    368  C8  A   B  54      23.716  -1.396  27.796  0.00  0.00    +0.000 A 
ATOM    369  N7  A   B  54      23.104  -1.625  26.654  0.00  0.00    +0.000 NA
ATOM    370  C5  A   B  54      21.921  -2.252  27.024  0.00  0.00    +0.000 A 
ATOM    371  C6  A   B  54      20.835  -2.750  26.286  0.00  0.00    +0.000 A 
ATOM    372  N1  A   B  54      19.816  -3.315  26.962  0.00  0.00    +0.000 NA
ATOM    373  C2  A   B  54      19.885  -3.374  28.295  0.00  0.00    +0.000 A 
ATOM    374  N3  A   B  54      20.852  -2.940  29.106  0.00  0.00    +0.000 NA
ATOM    375  C4  A   B  54      21.852  -2.385  28.398  0.00  0.00    +0.000 A 
BRANCH 371 376
ATOM    376  N6  A   B  54      20.765  -2.695  24.947  0.00  0.00    +0.000 N 
ATOM    377  H   A   B  54      19.979  -3.060  24.480  0.00  0.00    +0.000 HD
ATOM    378  H   A   B  54      21.500  -2.290  24.432  0.00  0.00    +0.000 HD
ENDBRANCH 371 376
ENDBRANCH 366 367
BRANCH 365 379
ATOM    379  O2' A   B  54      23.719  -3.185  32.192  0.00  0.00    +0.000 OA
ATOM    380  H   A   B  54      24.006  -2.391  32.669  0.00  0.00    +0.000 HD
ENDBRANCH 365 379
BRANCH 364 381
ATOM    381  O3' A   B  54      26.352  -3.581  31.368  0.00  0.00    +0.000 OA
BRANCH 381 382
ATOM    382  P   A   B  55      26.960  -4.909  30.716  0.00  0.00    +0.000 P 
ATOM    383  OP2 A   B  55      27.288  -4.633  29.293  0.00  0.00    +0.000 OA
BRANCH 382 384
ATOM    384  OP1 A   B  55      28.011  -5.416  31.628  0.00  0.00    +0.000 OA
ATOM    385  H   A   B  55      28.399  -6.224  31.257  0.00  0.00    +0.000 HD
ENDBRANCH 382 384
BRANCH 382 386
ATOM    386  O5' A   B  55      25.732  -5.926  30.752  0.00  0.00    +0.000 OA
BRANCH 386 387
ATOM    387  C5' A   B  55      25.126  -6.275  31.986  0.00  0.00    +0.000 C 
BRANCH 387 388
ATOM    388  C4' A   B  55      23.817  -7.000  31.780  0.00  0.00    +0.000 C 
ATOM    389  O4' A   B  55      22.861  -6.125  31.125  0.00  0.00    +0.000 OA
ATOM    390  C3' A   B  55      23.867  -8.219  30.876  0.00  0.00    +0.000 C 
ATOM    391  C2' A   B  55      22.419  -8.354  30.435  0.00  0.00    +0.000 C 
ATOM    392  C1' A   B  55      22.018  -6.885  30.282  0.00  0.00    +0.000 C 
BRANCH 392 393
ATOM    393  N9  A   B  55      22.185  -6.417  28.895  0.00  0.00    +0.000 N 
ATOM    394  C8  A   B  55      23.206  -5.669  28.366  0.00  0.00    +0.000 A 
ATOM    395  N7  A   B  55      23.060  -5.413  27.084  0.00  0.00    +0.000 NA
ATOM    396  C5  A   B  55      21.864  -6.037  26.748  0.00  0.00    +0.000 A 
ATOM    397  C6  A   B  55      21.149  -6.140  25.545  0.00  0.00    +0.000 A 
ATOM    398  N1  A   B  55      19.993  -6.832  25.555  0.00  0.00    +0.000 NA
ATOM    399  C2  A   B  55      19.581  -7.384  26.703  0.00  0.00    +0.000 A 
ATOM    400  N3  A   B  55      20.166  -7.356  27.902  0.00  0.00    +0.000 NA
ATOM    401  C4  A   B  55      21.316  -6.659  27.854  0.00  0.00    +0.000 A 
BRANCH 397 402
ATOM    402  N6  A   B  55      21.560  -5.589  24.391  0.00  0.00    +0.000 N 
ATOM    403  H   A   B  55      21.018  -5.693  23.576  0.00  0.00    +0.000 HD
ATOM    404  H   A   B  55      22.403  -5.081  24.361  0.00  0.00    +0.000 HD
ENDBRANCH 397 402
ENDBRANCH 392 393
BRANCH 391 405
ATOM    405  O2' A   B  55      21.625  -8.935  31.456  0.00  0.00    +0.000 OA
ATOM    406  H   A   B  55      21.708  -8.411  32.268  0.00  0.00    +0.000 HD
ENDBRANCH 391 405
BRANCH 390 407
ATOM    407  O3' A   B  55      24.372  -9.372  31.525  0.00  0.00    +0.000 OA
BRANCH 407 408
ATOM    408  P   A   B  56      25.172 -10.465  30.676  0.00  0.00    +0.000 P 
ATOM    409  OP2 A   B  56      26.017  -9.766  29.671  0.00  0.00    +0.000 OA
BRANCH 408 410
ATOM    410  OP1 A   B  56      25.797 -11.403  31.639  0.00  0.00    +0.000 OA
ATOM    411  H   A   B  56      26.292 -12.082  31.154  0.00  0.00    +0.000 HD
ENDBRANCH 408 410
BRANCH 408 412
ATOM    412  O5' A   B  56      24.017 -11.245  29.899  0.00  0.00    +0.000 OA
BRANCH 412 413
ATOM    413  C5' A   B  56      22.983 -11.898  30.617  0.00  0.00    +0.000 C 
BRANCH 413 414
ATOM    414  C4' A   B  56      21.833 -12.280  29.717  0.00  0.00    +0.000 C 
ATOM    415  O4' A   B  56      21.250 -11.088  29.128  0.00  0.00    +0.000 OA
ATOM    416  C3' A   B  56      22.183 -13.140  28.516  0.00  0.00    +0.000 C 
ATOM    417  C2' A   B  56      21.027 -12.869  27.571  0.00  0.00    +0.000 C 
ATOM    418  C1' A   B  56      20.779 -11.380  27.827  0.00  0.00    +0.000 C 
BRANCH 418 419
ATOM    419  N9  A   B  56      21.499 -10.529  26.862  0.00  0.00    +0.000 N 
ATOM    420  C8  A   B  56      22.663  -9.830  27.048  0.00  0.00    +0.000 A 
ATOM    421  N7  A   B  56      23.048  -9.159  25.985  0.00  0.00    +0.000 NA
ATOM    422  C5  A   B  56      22.072  -9.439  25.038  0.00  0.00    +0.000 A 
ATOM    423  C6  A   B  56      21.895  -9.035  23.706  0.00  0.00    +0.000 A 
ATOM    424  N1  A   B  56      20.817  -9.495  23.044  0.00  0.00    +0.000 NA
ATOM    425  C2  A   B  56      19.967 -10.310  23.682  0.00  0.00    +0.000 A 
ATOM    426  N3  A   B  56      20.024 -10.761  24.935  0.00  0.00    +0.000 NA
ATOM    427  C4  A   B  56      21.114 -10.282  25.564  0.00  0.00    +0.000 A 
BRANCH 423 428
ATOM    428  N6  A   B  56      22.746  -8.221  23.062  0.00  0.00    +0.000 N 
ATOM    429  H   A   B  56      22.573  -7.969  22.126  0.00  0.00    +0.000 HD
ATOM    430  H   A   B  56      23.543  -7.876  23.526  0.00  0.00    +0.000 HD
ENDBRANCH 423 428
ENDBRANCH 418 419
BRANCH 417 431
ATOM    431  O2' A   B  56      19.873 -13.594  27.955  0.00  0.00    +0.000 OA
ATOM    432  H   A   B  56      19.648 -13.380  28.874  0.00  0.00    +0.000 HD
ENDBRANCH 417 431
BRANCH 416 433
ATOM    433  O3' A   B  56      22.336 -14.510  28.843  0.00  0.00    +0.000 OA
BRANCH 433 434
ATOM    434  P   A   B  57      23.287 -15.425  27.947  0.00  0.00    +0.000 P 
ATOM    435  OP2 A   B  57      24.468 -14.623  27.524  0.00  0.00    +0.000 OA
BRANCH 434 436
ATOM    436  OP1 A   B  57      23.490 -16.699  28.679  0.00  0.00    +0.000 OA
ATOM    437  H   A   B  57      24.066 -17.282  28.160  0.00  0.00    +0.000 HD
ENDBRANCH 434 436
BRANCH 434 438
ATOM    438  O5' A   B  57      22.401 -15.730  26.660  0.00  0.00    +0.000 OA
BRANCH 438 439
ATOM    439  C5' A   B  57      21.149 -16.381  26.784  0.00  0.00    +0.000 C 
BRANCH 439 440
ATOM    440  C4' A   B  57      20.417 -16.433  25.466  0.00  0.00    +0.000 C 
ATOM    441  O4' A   B  57      20.022 -15.096  25.066  0.00  0.00    +0.000 OA
ATOM    442  C3' A   B  57      21.220 -16.943  24.283  0.00  0.00    +0.000 C 
ATOM    443  C2' A   B  57      20.473 -16.348  23.100  0.00  0.00    +0.000 C 
ATOM    444  C1' A   B  57      20.084 -14.981  23.659  0.00  0.00    +0.000 C 
BRANCH 444 445
ATOM    445  N9  A   B  57      21.078 -13.946  23.316  0.00  0.00    +0.000 N 
ATOM    446  C8  A   B  57      22.086 -13.454  24.103  0.00  0.00    +0.000 A 
ATOM    447  N7  A   B  57      22.812 -12.530  23.514  0.00  0.00    +0.000 NA
ATOM    448  C5  A   B  57      22.241 -12.410  22.255  0.00  0.00    +0.000 A 
ATOM    449  C6  A   B  57      22.543 -11.600  21.149  0.00  0.00    +0.000 A 
ATOM    450  N1  A   B  57      21.778 -11.726  20.050  0.00  0.00    +0.000 NA
ATOM    451  C2  A   B  57      20.773 -12.611  20.059  0.00  0.00    +0.000 A 
ATOM    452  N3  A   B  57      20.389 -13.431  21.037  0.00  0.00    +0.000 NA
ATOM    453  C4  A   B  57      21.175 -13.276  22.120  0.00  0.00    +0.000 A 
BRANCH 449 454
ATOM    454  N6  A   B  57      23.552 -10.716  21.136  0.00  0.00    +0.000 N 
ATOM    455  H   A   B  57      23.720 -10.172  20.333  0.00  0.00    +0.000 HD
ATOM    456  H   A   B  57      24.125 -10.611  21.930  0.00  0.00    +0.000 HD
ENDBRANCH 449 454
ENDBRANCH 444 445
BRANCH 443 457
ATOM    457  O2' A   B  57      19.294 -17.079  22.821  0.00  0.00    +0.000 OA
ATOM    458  H   A   B  57      18.741 -17.117  23.617  0.00  0.00    +0.000 HD
ENDBRANCH 443 457
BRANCH 442 459
ATOM    459  O3' A   B  57      21.315 -18.354  24.247  0.00  0.00    +0.000 OA
BRANCH 459 460
ATOM    460  P   C   B  58      22.637 -19.023  23.652  0.00  0.00    +0.000 P 
ATOM    461  OP2 C   B  58      23.773 -18.078  23.829  0.00  0.00    +0.000 OA
BRANCH 460 462
ATOM    462  OP1 C   B  58      22.729 -20.400  24.200  0.00  0.00    +0.000 OA
ATOM    463  H   C   B  58      23.525 -20.833  23.855  0.00  0.00    +0.000 HD
ENDBRANCH 460 462
BRANCH 460 464
ATOM    464  O5' C   B  58      22.309 -19.125  22.098  0.00  0.00    +0.000 OA
BRANCH 464 465
ATOM    465  C5' C   B  58      21.198 -19.879  21.648  0.00  0.00    +0.000 C 
BRANCH 465 466
ATOM    466  C4' C   B  58      20.817 -19.521  20.233  0.00  0.00    +0.000 C 
ATOM    467  O4' C   B  58      20.423 -18.127  20.166  0.00  0.00    +0.000 OA
ATOM    468  C3' C   B  58      21.915 -19.629  19.195  0.00  0.00    +0.000 C 
ATOM    469  C2' C   B  58      21.405 -18.718  18.089  0.00  0.00    +0.000 C 
ATOM    470  C1' C   B  58      20.777 -17.589  18.908  0.00  0.00    +0.000 C 
BRANCH 470 471
ATOM    471  N1  C   B  58      21.726 -16.473  19.117  0.00  0.00    +0.000 N 
ATOM    472  C2  C   B  58      21.835 -15.508  18.110  0.00  0.00    +0.000 A 
ATOM    473  O2  C   B  58      21.134 -15.615  17.089  0.00  0.00    +0.000 OA
ATOM    474  N3  C   B  58      22.699 -14.478  18.276  0.00  0.00    +0.000 NA
ATOM    475  C4  C   B  58      23.437 -14.394  19.387  0.00  0.00    +0.000 A 
ATOM    476  N4  C   B  58      24.277 -13.362  19.505  0.00  0.00    +0.000 N 
ATOM    477  C5  C   B  58      23.347 -15.368  20.424  0.00  0.00    +0.000 A 
ATOM    478  C6  C   B  58      22.489 -16.380  20.248  0.00  0.00    +0.000 A 
ATOM    479  H   C   B  58      24.337 -12.691  18.787  0.00  0.00    +0.000 HD
ATOM    480  H   C   B  58      24.836 -13.272  20.310  0.00  0.00    +0.000 HD
ENDBRANCH 470 471
BRANCH 469 481
ATOM    481  O2' C   B  58      20.388 -19.348  17.336  0.00  0.00    +0.000 OA
ATOM    482  H   C   B  58      19.675 -19.632  17.929  0.00  0.00    +0.000 HD
ENDBRANCH 469 481
BRANCH 468 483
ATOM    483  O3' C   B  58      22.146 -20.959  18.764  0.00  0.00    +0.000 OA
BRANCH 483 484
ATOM    484  P   A   B  59      23.629 -21.360  18.298  0.00  0.00    +0.000 P 
ATOM    485  OP1 A   B  59      23.640 -22.815  18.023  0.00  0.00    +0.000 OA
BRANCH 484 486
ATOM    486  OP2 A   B  59      24.603 -20.784  19.260  0.00  0.00    +0.000 OA
ATOM    487  H   A   B  59      25.504 -21.020  18.988  0.00  0.00    +0.000 HD
ENDBRANCH 484 486
BRANCH 484 488
ATOM    488  O5' A   B  59      23.783 -20.586  16.915  0.00  0.00    +0.000 OA
BRANCH 488 489
ATOM    489  C5' A   B  59      22.925 -20.881  15.835  0.00  0.00    +0.000 C 
BRANCH 489 490
ATOM    490  C4' A   B  59      22.988 -19.817  14.765  0.00  0.00    +0.000 C 
ATOM    491  O4' A   B  59      22.644 -18.526  15.332  0.00  0.00    +0.000 OA
ATOM    492  C3' A   B  59      24.346 -19.579  14.136  0.00  0.00    +0.000 C 
ATOM    493  C2' A   B  59      24.207 -18.168  13.583  0.00  0.00    +0.000 C 
ATOM    494  C1' A   B  59      23.358 -17.504  14.671  0.00  0.00    +0.000 C 
BRANCH 494 495
ATOM    495  N9  A   B  59      24.188 -16.784  15.650  0.00  0.00    +0.000 N 
ATOM    496  C8  A   B  59      24.571 -17.189  16.902  0.00  0.00    +0.000 A 
ATOM    497  N7  A   B  59      25.315 -16.310  17.534  0.00  0.00    +0.000 NA
ATOM    498  C5  A   B  59      25.429 -15.256  16.635  0.00  0.00    +0.000 A 
ATOM    499  C6  A   B  59      26.089 -14.018  16.700  0.00  0.00    +0.000 A 
ATOM    500  N6  A   B  59      26.799 -13.610  17.763  0.00  0.00    +0.000 N 
ATOM    501  N1  A   B  59      26.000 -13.203  15.630  0.00  0.00    +0.000 NA
ATOM    502  C2  A   B  59      25.297 -13.607  14.564  0.00  0.00    +0.000 A 
ATOM    503  N3  A   B  59      24.633 -14.750  14.384  0.00  0.00    +0.000 NA
ATOM    504  C4  A   B  59      24.742 -15.537  15.472  0.00  0.00    +0.000 A 
ATOM    505  H   A   B  59      27.241 -12.730  17.752  0.00  0.00    +0.000 HD
ATOM    506  H   A   B  59      26.878 -14.190  18.554  0.00  0.00    +0.000 HD
ENDBRANCH 494 495
BRANCH 493 507
ATOM    507  O2' A   B  59      23.472 -18.167  12.373  0.00  0.00    +0.000 OA
ATOM    508  H   A   B  59      22.610 -18.587  12.518  0.00  0.00    +0.000 HD
ENDBRANCH 493 507
BRANCH 492 509
ATOM    509  O3' A   B  59      24.671 -20.540  13.150  0.00  0.00    +0.000 OA
BRANCH 509 510
ATOM    510  P   G   B  60      26.206 -20.965  12.943  0.00  0.00    +0.000 P 
ATOM    511  OP1 G   B  60      26.215 -22.123  12.011  0.00  0.00    +0.000 OA
BRANCH 510 512
ATOM    512  OP2 G   B  60      26.866 -21.087  14.270  0.00  0.00    +0.000 OA
ATOM    513  H   G   B  60      27.793 -21.344  14.147  0.00  0.00    +0.000 HD
ENDBRANCH 510 512
BRANCH 510 514
ATOM    514  O5' G   B  60      26.820 -19.705  12.189  0.00  0.00    +0.000 OA
BRANCH 514 515
ATOM    515  C5' G   B  60      26.304 -19.287  10.939  0.00  0.00    +0.000 C 
BRANCH 515 516
ATOM    516  C4' G   B  60      26.879 -17.954  10.519  0.00  0.00    +0.000 C 
ATOM    517  O4' G   B  60      26.494 -16.938  11.476  0.00  0.00    +0.000 OA
ATOM    518  C3' G   B  60      28.387 -17.865  10.477  0.00  0.00    +0.000 C 
ATOM    519  C2' G   B  60      28.645 -16.374  10.647  0.00  0.00    +0.000 C 
ATOM    520  C1' G   B  60      27.495 -15.956  11.568  0.00  0.00    +0.000 C 
BRANCH 520 521
ATOM    521  N9  G   B  60      27.915 -15.821  12.974  0.00  0.00    +0.000 N 
ATOM    522  C8  G   B  60      27.874 -16.769  13.960  0.00  0.00    +0.000 A 
ATOM    523  N7  G   B  60      28.316 -16.326  15.110  0.00  0.00    +0.000 NA
ATOM    524  C5  G   B  60      28.669 -15.004  14.862  0.00  0.00    +0.000 A 
ATOM    525  C6  G   B  60      29.204 -14.013  15.721  0.00  0.00    +0.000 A 
ATOM    526  O6  G   B  60      29.493 -14.104  16.925  0.00  0.00    +0.000 OA
ATOM    527  N1  G   B  60      29.407 -12.812  15.054  0.00  0.00    +0.000 NA
ATOM    528  C2  G   B  60      29.131 -12.588  13.729  0.00  0.00    +0.000 A 
ATOM    529  N2  G   B  60      29.394 -11.359  13.262  0.00  0.00    +0.000 N 
ATOM    530  N3  G   B  60      28.630 -13.505  12.917  0.00  0.00    +0.000 N 
ATOM    531  C4  G   B  60      28.425 -14.681  13.548  0.00  0.00    +0.000 A 
ATOM    532  H   G   B  60      29.215 -11.142  12.318  0.00  0.00    +0.000 HD
ATOM    533  H   G   B  60      29.766 -10.673  13.863  0.00  0.00    +0.000 HD
ATOM    534  H   G   B  60      28.430 -13.348  11.966  0.00  0.00    +0.000 HD
ENDBRANCH 520 521
BRANCH 519 535
ATOM    535  O2' G   B  60      28.516 -15.688   9.409  0.00  0.00    +0.000 OA
ATOM    536  H   G   B  60      27.637 -15.857   9.036  0.00  0.00    +0.000 HD
ENDBRANCH 519 535
BRANCH 518 537
ATOM    537  O3' G   B  60      28.931 -18.370   9.270  0.00  0.00    +0.000 OA
BRANCH 537 538
ATOM    538  P   A   B  61      29.321 -19.905   9.103  0.00  0.00    +0.000 P 
ATOM    539  OP1 A   B  61      28.197 -20.713   9.600  0.00  0.00    +0.000 OA
BRANCH 538 540
ATOM    540  OP2 A   B  61      30.697 -20.184   9.631  0.00  0.00    +0.000 OA
ATOM    541  H   A   B  61      31.331 -19.578   9.216  0.00  0.00    +0.000 HD
ENDBRANCH 538 540
BRANCH 538 542
ATOM    542  O5' A   B  61      29.379 -20.033   7.519  0.00  0.00    +0.000 OA
BRANCH 542 543
ATOM    543  C5' A   B  61      28.599 -20.985   6.822  0.00  0.00    +0.000 C 
BRANCH 543 544
ATOM    544  C4' A   B  61      27.303 -20.416   6.314  0.00  0.00    +0.000 C 
ATOM    545  O4' A   B  61      27.401 -18.965   6.153  0.00  0.00    +0.000 OA
ATOM    546  C3' A   B  61      26.847 -20.936   4.947  0.00  0.00    +0.000 C 
ATOM    547  C2' A   B  61      27.354 -19.863   3.996  0.00  0.00    +0.000 C 
ATOM    548  C1' A   B  61      27.094 -18.611   4.833  0.00  0.00    +0.000 C 
BRANCH 548 549
ATOM    549  N9  A   B  61      27.885 -17.450   4.433  0.00  0.00    +0.000 N 
ATOM    550  C8  A   B  61      27.772 -16.748   3.270  0.00  0.00    +0.000 A 
ATOM    551  N7  A   B  61      28.613 -15.748   3.151  0.00  0.00    +0.000 NA
ATOM    552  C5  A   B  61      29.322 -15.786   4.335  0.00  0.00    +0.000 A 
ATOM    553  C6  A   B  61      30.355 -14.984   4.842  0.00  0.00    +0.000 A 
ATOM    554  N1  A   B  61      30.836 -15.279   6.064  0.00  0.00    +0.000 NA
ATOM    555  C2  A   B  61      30.312 -16.311   6.727  0.00  0.00    +0.000 A 
ATOM    556  N3  A   B  61      29.340 -17.140   6.354  0.00  0.00    +0.000 NA
ATOM    557  C4  A   B  61      28.883 -16.824   5.135  0.00  0.00    +0.000 A 
BRANCH 553 558
ATOM    558  N6  A   B  61      30.883 -13.954   4.178  0.00  0.00    +0.000 N 
ATOM    559  H   A   B  61      30.546 -13.721   3.283  0.00  0.00    +0.000 HD
ATOM    560  H   A   B  61      31.609 -13.427   4.583  0.00  0.00    +0.000 HD
ENDBRANCH 553 558
ENDBRANCH 548 549
BRANCH 547 561
ATOM    561  O2' A   B  61      26.697 -19.820   2.751  0.00  0.00    +0.000 OA
ATOM    562  H   A   B  61      25.747 -19.684   2.891  0.00  0.00    +0.000 HD
ENDBRANCH 547 561
BRANCH 546 563
ATOM    563  O3' A   B  61      25.428 -20.957   4.897  0.00  0.00    +0.000 OA
BRANCH 563 564
ATOM    564  P   C   B  62      24.572 -22.237   5.291  0.00  0.00    +0.000 P 
ATOM    565  OP2 C   B  62      24.683 -23.226   4.193  0.00  0.00    +0.000 OA
BRANCH 564 566
ATOM    566  OP1 C   B  62      24.906 -22.636   6.680  0.00  0.00    +0.000 OA
ATOM    567  H   C   B  62      25.806 -22.997   6.705  0.00  0.00    +0.000 HD
ENDBRANCH 564 566
BRANCH 564 568
ATOM    568  O5' C   B  62      23.087 -21.647   5.282  0.00  0.00    +0.000 OA
BRANCH 568 569
ATOM    569  C5' C   B  62      22.589 -20.973   6.423  0.00  0.00    +0.000 C 
BRANCH 569 570
ATOM    570  C4' C   B  62      22.461 -19.487   6.194  0.00  0.00    +0.000 C 
ATOM    571  O4' C   B  62      23.669 -18.972   5.580  0.00  0.00    +0.000 OA
ATOM    572  C3' C   B  62      21.356 -19.043   5.255  0.00  0.00    +0.000 C 
ATOM    573  C2' C   B  62      21.839 -17.669   4.800  0.00  0.00    +0.000 C 
ATOM    574  C1' C   B  62      23.356 -17.877   4.742  0.00  0.00    +0.000 C 
BRANCH 574 575
ATOM    575  N1  C   B  62      23.842 -18.164   3.369  0.00  0.00    +0.000 N 
ATOM    576  C2  C   B  62      24.560 -17.176   2.700  0.00  0.00    +0.000 A 
ATOM    577  O2  C   B  62      24.774 -16.092   3.263  0.00  0.00    +0.000 OA
ATOM    578  N3  C   B  62      25.013 -17.423   1.447  0.00  0.00    +0.000 NA
ATOM    579  C4  C   B  62      24.772 -18.598   0.868  0.00  0.00    +0.000 A 
ATOM    580  N4  C   B  62      25.238 -18.792  -0.368  0.00  0.00    +0.000 N 
ATOM    581  C5  C   B  62      24.042 -19.618   1.532  0.00  0.00    +0.000 A 
ATOM    582  C6  C   B  62      23.599 -19.367   2.766  0.00  0.00    +0.000 A 
ATOM    583  H   C   B  62      25.743 -18.079  -0.821  0.00  0.00    +0.000 HD
ATOM    584  H   C   B  62      25.076 -19.648  -0.826  0.00  0.00    +0.000 HD
ENDBRANCH 574 575
BRANCH 573 585
ATOM    585  O2' C   B  62      21.567 -16.681   5.786  0.00  0.00    +0.000 OA
ATOM    586  H   C   B  62      21.971 -16.944   6.628  0.00  0.00    +0.000 HD
ENDBRANCH 573 585
BRANCH 572 587
ATOM    587  O3' C   B  62      20.084 -19.022   5.881  0.00  0.00    +0.000 OA
BRANCH 587 588
ATOM    588  P   U   B  63      18.730 -19.113   5.028  0.00  0.00    +0.000 P 
ATOM    589  OP2 U   B  63      19.043 -19.801   3.753  0.00  0.00    +0.000 OA
BRANCH 588 590
ATOM    590  OP1 U   B  63      17.639 -19.623   5.895  0.00  0.00    +0.000 OA
ATOM    591  H   U   B  63      16.818 -19.679   5.382  0.00  0.00    +0.000 HD
ENDBRANCH 588 590
BRANCH 588 592
ATOM    592  O5' U   B  63      18.428 -17.587   4.715  0.00  0.00    +0.000 OA
BRANCH 592 593
ATOM    593  C5' U   B  63      18.377 -16.621   5.750  0.00  0.00    +0.000 C 
BRANCH 593 594
ATOM    594  C4' U   B  63      18.672 -15.235   5.235  0.00  0.00    +0.000 C 
ATOM    595  O4' U   B  63      20.020 -15.186   4.709  0.00  0.00    +0.000 OA
ATOM    596  C3' U   B  63      17.806 -14.774   4.081  0.00  0.00    +0.000 C 
ATOM    597  C2' U   B  63      18.679 -13.728   3.396  0.00  0.00    +0.000 C 
ATOM    598  C1' U   B  63      20.078 -14.322   3.594  0.00  0.00    +0.000 C 
BRANCH 598 599
ATOM    599  N1  U   B  63      20.534 -15.110   2.419  0.00  0.00    +0.000 N 
ATOM    600  C2  U   B  63      21.492 -14.549   1.600  0.00  0.00    +0.000 A 
ATOM    601  O2  U   B  63      21.972 -13.448   1.803  0.00  0.00    +0.000 OA
ATOM    602  N3  U   B  63      21.883 -15.326   0.534  0.00  0.00    +0.000 N 
ATOM    603  C4  U   B  63      21.420 -16.583   0.210  0.00  0.00    +0.000 A 
ATOM    604  O4  U   B  63      21.866 -17.157  -0.783  0.00  0.00    +0.000 OA
ATOM    605  C5  U   B  63      20.430 -17.094   1.101  0.00  0.00    +0.000 A 
ATOM    606  C6  U   B  63      20.032 -16.358   2.147  0.00  0.00    +0.000 A 
ATOM    607  H   U   B  63      22.567 -14.943  -0.061  0.00  0.00    +0.000 HD
ENDBRANCH 598 599
BRANCH 597 608
ATOM    608  O2' U   B  63      18.619 -12.487   4.085  0.00  0.00    +0.000 OA
ATOM    609  H   U   B  63      18.871 -12.619   5.012  0.00  0.00    +0.000 HD
ENDBRANCH 597 608
BRANCH 596 610
ATOM    610  O3' U   B  63      16.553 -14.281   4.520  0.00  0.00    +0.000 OA
BRANCH 610 611
ATOM    611  P   A   B  64      15.388 -14.037   3.489  0.00  0.00    +0.000 P 
ATOM    612  OP2 A   B  64      15.637 -14.867   2.284  0.00  0.00    +0.000 OA
BRANCH 611 613
ATOM    613  OP1 A   B  64      14.084 -14.139   4.193  0.00  0.00    +0.000 OA
ATOM    614  H   A   B  64      13.363 -13.989   3.562  0.00  0.00    +0.000 HD
ENDBRANCH 611 613
BRANCH 611 615
ATOM    615  O5' A   B  64      15.609 -12.510   3.099  0.00  0.00    +0.000 OA
BRANCH 615 616
ATOM    616  C5' A   B  64      14.913 -11.934   2.026  0.00  0.00    +0.000 C 
BRANCH 616 617
ATOM    617  C4' A   B  64      15.757 -10.943   1.272  0.00  0.00    +0.000 C 
ATOM    618  O4' A   B  64      17.147 -11.359   1.286  0.00  0.00    +0.000 OA
ATOM    619  C3' A   B  64      15.438 -10.821  -0.210  0.00  0.00    +0.000 C 
ATOM    620  C2' A   B  64      16.740 -10.296  -0.795  0.00  0.00    +0.000 C 
ATOM    621  C1' A   B  64      17.765 -11.046   0.059  0.00  0.00    +0.000 C 
BRANCH 621 622
ATOM    622  N9  A   B  64      18.199 -12.305  -0.573  0.00  0.00    +0.000 N 
ATOM    623  C8  A   B  64      17.902 -13.582  -0.171  0.00  0.00    +0.000 A 
ATOM    624  N7  A   B  64      18.433 -14.514  -0.927  0.00  0.00    +0.000 NA
ATOM    625  C5  A   B  64      19.132 -13.802  -1.890  0.00  0.00    +0.000 A 
ATOM    626  C6  A   B  64      19.917 -14.212  -2.983  0.00  0.00    +0.000 A 
ATOM    627  N1  A   B  64      20.475 -13.249  -3.748  0.00  0.00    +0.000 NA
ATOM    628  C2  A   B  64      20.256 -11.968  -3.431  0.00  0.00    +0.000 A 
ATOM    629  N3  A   B  64      19.539 -11.462  -2.429  0.00  0.00    +0.000 NA
ATOM    630  C4  A   B  64      18.997 -12.445  -1.686  0.00  0.00    +0.000 A 
BRANCH 626 631
ATOM    631  N6  A   B  64      20.131 -15.493  -3.299  0.00  0.00    +0.000 N 
ATOM    632  H   A   B  64      20.690 -15.721  -4.076  0.00  0.00    +0.000 HD
ATOM    633  H   A   B  64      19.730 -16.208  -2.754  0.00  0.00    +0.000 HD
ENDBRANCH 626 631
ENDBRANCH 621 622
BRANCH 620 634
ATOM    634  O2' A   B  64      16.882  -8.908  -0.561  0.00  0.00    +0.000 OA
ATOM    635  H   A   B  64      16.814  -8.732   0.390  0.00  0.00    +0.000 HD
ENDBRANCH 620 634
BRANCH 619 636
ATOM    636  O3' A   B  64      14.317  -9.986  -0.450  0.00  0.00    +0.000 OA
BRANCH 636 637
ATOM    637  P   C   B  65      13.095 -10.585  -1.284  0.00  0.00    +0.000 P 
ATOM    638  OP1 C   B  65      11.934  -9.681  -1.088  0.00  0.00    +0.000 OA
BRANCH 637 639
ATOM    639  OP2 C   B  65      12.959 -12.036  -1.010  0.00  0.00    +0.000 OA
ATOM    640  H   C   B  65      12.215 -12.393  -1.520  0.00  0.00    +0.000 HD
ENDBRANCH 637 639
BRANCH 637 641
ATOM    641  O5' C   B  65      13.624 -10.402  -2.774  0.00  0.00    +0.000 OA
BRANCH 641 642
ATOM    642  C5' C   B  65      14.136  -9.157  -3.200  0.00  0.00    +0.000 C 
BRANCH 642 643
ATOM    643  C4' C   B  65      14.948  -9.290  -4.458  0.00  0.00    +0.000 C 
ATOM    644  O4' C   B  65      16.196  -9.977  -4.184  0.00  0.00    +0.000 OA
ATOM    645  C3' C   B  65      14.325 -10.116  -5.565  0.00  0.00    +0.000 C 
ATOM    646  C2' C   B  65      15.539 -10.499  -6.405  0.00  0.00    +0.000 C 
ATOM    647  C1' C   B  65      16.587 -10.731  -5.320  0.00  0.00    +0.000 C 
BRANCH 647 648
ATOM    648  N1  C   B  65      16.679 -12.160  -4.938  0.00  0.00    +0.000 N 
ATOM    649  C2  C   B  65      17.452 -13.011  -5.740  0.00  0.00    +0.000 A 
ATOM    650  O2  C   B  65      18.033 -12.544  -6.732  0.00  0.00    +0.000 OA
ATOM    651  N3  C   B  65      17.554 -14.320  -5.411  0.00  0.00    +0.000 NA
ATOM    652  C4  C   B  65      16.915 -14.788  -4.336  0.00  0.00    +0.000 A 
ATOM    653  N4  C   B  65      17.044 -16.086  -4.050  0.00  0.00    +0.000 N 
ATOM    654  C5  C   B  65      16.121 -13.943  -3.508  0.00  0.00    +0.000 A 
ATOM    655  C6  C   B  65      16.032 -12.650  -3.842  0.00  0.00    +0.000 A 
ATOM    656  H   C   B  65      17.594 -16.665  -4.626  0.00  0.00    +0.000 HD
ATOM    657  H   C   B  65      16.589 -16.464  -3.263  0.00  0.00    +0.000 HD
ENDBRANCH 647 648
BRANCH 646 658
ATOM    658  O2' C   B  65      15.959  -9.417  -7.213  0.00  0.00    +0.000 OA
ATOM    659  H   C   B  65      16.133  -8.644  -6.653  0.00  0.00    +0.000 HD
ENDBRANCH 646 658
BRANCH 645 660
ATOM    660  O3' C   B  65      13.327  -9.416  -6.285  0.00  0.00    +0.000 OA
BRANCH 660 661
ATOM    661  P   A   B  66      12.061 -10.219  -6.822  0.00  0.00    +0.000 P 
ATOM    662  OP1 A   B  66      11.076  -9.230  -7.321  0.00  0.00    +0.000 OA
BRANCH 661 663
ATOM    663  OP2 A   B  66      11.650 -11.223  -5.809  0.00  0.00    +0.000 OA
ATOM    664  H   A   B  66      10.879 -11.713  -6.134  0.00  0.00    +0.000 HD
ENDBRANCH 661 663
BRANCH 661 665
ATOM    665  O5' A   B  66      12.660 -10.995  -8.075  0.00  0.00    +0.000 OA
BRANCH 665 666
ATOM    666  C5' A   B  66      13.362 -10.304  -9.085  0.00  0.00    +0.000 C 
BRANCH 666 667
ATOM    667  C4' A   B  66      14.135 -11.247  -9.966  0.00  0.00    +0.000 C 
ATOM    668  O4' A   B  66      15.161 -11.919  -9.201  0.00  0.00    +0.000 OA
ATOM    669  C3' A   B  66      13.334 -12.381 -10.573  0.00  0.00    +0.000 C 
ATOM    670  C2' A   B  66      14.406 -13.413 -10.879  0.00  0.00    +0.000 C 
ATOM    671  C1' A   B  66      15.336 -13.236  -9.682  0.00  0.00    +0.000 C 
BRANCH 671 672
ATOM    672  N9  A   B  66      15.020 -14.181  -8.599  0.00  0.00    +0.000 N 
ATOM    673  C8  A   B  66      14.416 -13.910  -7.398  0.00  0.00    +0.000 A 
ATOM    674  N7  A   B  66      14.265 -14.965  -6.635  0.00  0.00    +0.000 NA
ATOM    675  C5  A   B  66      14.807 -16.001  -7.385  0.00  0.00    +0.000 A 
ATOM    676  C6  A   B  66      14.956 -17.376  -7.136  0.00  0.00    +0.000 A 
ATOM    677  N6  A   B  66      14.549 -17.969  -6.009  0.00  0.00    +0.000 N 
ATOM    678  N1  A   B  66      15.540 -18.127  -8.091  0.00  0.00    +0.000 NA
ATOM    679  C2  A   B  66      15.946 -17.531  -9.221  0.00  0.00    +0.000 A 
ATOM    680  N3  A   B  66      15.861 -16.249  -9.569  0.00  0.00    +0.000 NA
ATOM    681  C4  A   B  66      15.274 -15.531  -8.593  0.00  0.00    +0.000 A 
ATOM    682  H   A   B  66      14.679 -18.937  -5.888  0.00  0.00    +0.000 HD
ATOM    683  H   A   B  66      14.119 -17.437  -5.300  0.00  0.00    +0.000 HD
ENDBRANCH 671 672
BRANCH 670 684
ATOM    684  O2' A   B  66      15.118 -13.080 -12.060  0.00  0.00    +0.000 OA
ATOM    685  H   A   B  66      15.490 -12.189 -11.973  0.00  0.00    +0.000 HD
ENDBRANCH 670 684
BRANCH 669 686
ATOM    686  O3' A   B  66      12.584 -11.983 -11.705  0.00  0.00    +0.000 OA
BRANCH 686 687
ATOM    687  P   A   B  67      11.110 -12.565 -11.889  0.00  0.00    +0.000 P 
ATOM    688  OP1 A   B  67      10.469 -11.780 -12.974  0.00  0.00    +0.000 OA
BRANCH 687 689
ATOM    689  OP2 A   B  67      10.449 -12.670 -10.561  0.00  0.00    +0.000 OA
ATOM    690  H   A   B  67       9.553 -13.024 -10.673  0.00  0.00    +0.000 HD
ENDBRANCH 687 689
BRANCH 687 691
ATOM    691  O5' A   B  67      11.371 -14.038 -12.425  0.00  0.00    +0.000 OA
BRANCH 691 692
ATOM    692  C5' A   B  67      12.238 -14.267 -13.517  0.00  0.00    +0.000 C 
BRANCH 692 693
ATOM    693  C4' A   B  67      12.623 -15.718 -13.618  0.00  0.00    +0.000 C 
ATOM    694  O4' A   B  67      13.422 -16.100 -12.472  0.00  0.00    +0.000 OA
ATOM    695  C3' A   B  67      11.471 -16.701 -13.601  0.00  0.00    +0.000 C 
ATOM    696  C2' A   B  67      12.136 -17.979 -13.124  0.00  0.00    +0.000 C 
ATOM    697  C1' A   B  67      13.138 -17.433 -12.107  0.00  0.00    +0.000 C 
BRANCH 697 698
ATOM    698  N9  A   B  67      12.595 -17.440 -10.739  0.00  0.00    +0.000 N 
ATOM    699  C8  A   B  67      12.102 -16.378 -10.026  0.00  0.00    +0.000 A 
ATOM    700  N7  A   B  67      11.683 -16.701  -8.824  0.00  0.00    +0.000 NA
ATOM    701  C5  A   B  67      11.918 -18.065  -8.743  0.00  0.00    +0.000 A 
ATOM    702  C6  A   B  67      11.695 -19.006  -7.726  0.00  0.00    +0.000 A 
ATOM    703  N6  A   B  67      11.157 -18.697  -6.538  0.00  0.00    +0.000 N 
ATOM    704  N1  A   B  67      12.043 -20.284  -7.966  0.00  0.00    +0.000 NA
ATOM    705  C2  A   B  67      12.579 -20.593  -9.152  0.00  0.00    +0.000 A 
ATOM    706  N3  A   B  67      12.837 -19.797 -10.186  0.00  0.00    +0.000 NA
ATOM    707  C4  A   B  67      12.477 -18.531  -9.913  0.00  0.00    +0.000 A 
ATOM    708  H   A   B  67      10.896 -17.768  -6.343  0.00  0.00    +0.000 HD
ATOM    709  H   A   B  67      11.023 -19.399  -5.861  0.00  0.00    +0.000 HD
ENDBRANCH 697 698
BRANCH 696 710
ATOM    710  O2' A   B  67      12.851 -18.603 -14.175  0.00  0.00    +0.000 OA
ATOM    711  H   A   B  67      13.493 -17.977 -14.546  0.00  0.00    +0.000 HD
ENDBRANCH 696 710
BRANCH 695 712
ATOM    712  O3' A   B  67      10.828 -16.819 -14.854  0.00  0.00    +0.000 OA
BRANCH 712 713
ATOM    713  P   A   B  68       9.247 -16.740 -14.918  0.00  0.00    +0.000 P 
ATOM    714  OP1 A   B  68       8.868 -16.664 -16.349  0.00  0.00    +0.000 OA
BRANCH 713 715
ATOM    715  OP2 A   B  68       8.777 -15.696 -13.972  0.00  0.00    +0.000 OA
ATOM    716  H   A   B  68       9.044 -14.822 -14.297  0.00  0.00    +0.000 HD
ENDBRANCH 713 715
BRANCH 713 717
ATOM    717  O5' A   B  68       8.790 -18.156 -14.351  0.00  0.00    +0.000 OA
BRANCH 717 718
ATOM    718  C5' A   B  68       9.298 -19.349 -14.907  0.00  0.00    +0.000 C 
BRANCH 718 719
ATOM    719  C4' A   B  68       9.149 -20.507 -13.956  0.00  0.00    +0.000 C 
ATOM    720  O4' A   B  68       9.871 -20.234 -12.732  0.00  0.00    +0.000 OA
ATOM    721  C3' A   B  68       7.736 -20.800 -13.491  0.00  0.00    +0.000 C 
ATOM    722  C2' A   B  68       7.962 -21.533 -12.182  0.00  0.00    +0.000 C 
ATOM    723  C1' A   B  68       9.188 -20.798 -11.633  0.00  0.00    +0.000 C 
BRANCH 723 724
ATOM    724  N9  A   B  68       8.816 -19.718 -10.704  0.00  0.00    +0.000 N 
ATOM    725  C8  A   B  68       8.872 -18.366 -10.918  0.00  0.00    +0.000 A 
ATOM    726  N7  A   B  68       8.471 -17.654  -9.894  0.00  0.00    +0.000 NA
ATOM    727  C5  A   B  68       8.129 -18.604  -8.940  0.00  0.00    +0.000 A 
ATOM    728  C6  A   B  68       7.636 -18.497  -7.632  0.00  0.00    +0.000 A 
ATOM    729  N6  A   B  68       7.384 -17.328  -7.029  0.00  0.00    +0.000 N 
ATOM    730  N1  A   B  68       7.402 -19.638  -6.956  0.00  0.00    +0.000 NA
ATOM    731  C2  A   B  68       7.652 -20.808  -7.559  0.00  0.00    +0.000 A 
ATOM    732  N3  A   B  68       8.118 -21.034  -8.781  0.00  0.00    +0.000 NA
ATOM    733  C4  A   B  68       8.338 -19.875  -9.426  0.00  0.00    +0.000 A 
ATOM    734  H   A   B  68       7.548 -16.483  -7.506  0.00  0.00    +0.000 HD
ATOM    735  H   A   B  68       7.034 -17.314  -6.109  0.00  0.00    +0.000 HD
ENDBRANCH 723 724
BRANCH 722 736
ATOM    736  O2' A   B  68       8.311 -22.887 -12.410  0.00  0.00    +0.000 OA
ATOM    737  H   A   B  68       9.090 -22.927 -12.986  0.00  0.00    +0.000 HD
ENDBRANCH 722 736
BRANCH 721 738
ATOM    738  O3' A   B  68       6.990 -21.544 -14.438  0.00  0.00    +0.000 OA
BRANCH 738 739
ATOM    739  P   A   B  69       5.464 -21.233 -14.665  0.00  0.00    +0.000 P 
ATOM    740  OP1 A   B  69       5.062 -21.866 -15.940  0.00  0.00    +0.000 OA
BRANCH 739 741
ATOM    741  OP2 A   B  69       5.251 -19.777 -14.463  0.00  0.00    +0.000 OA
ATOM    742  H   A   B  69       5.682 -19.285 -15.179  0.00  0.00    +0.000 HD
ENDBRANCH 739 741
BRANCH 739 743
ATOM    743  O5' A   B  69       4.741 -22.004 -13.467  0.00  0.00    +0.000 OA
BRANCH 743 744
ATOM    744  C5' A   B  69       5.021 -23.364 -13.199  0.00  0.00    +0.000 C 
BRANCH 744 745
ATOM    745  C4' A   B  69       4.739 -23.703 -11.754  0.00  0.00    +0.000 C 
ATOM    746  O4' A   B  69       5.461 -22.795 -10.899  0.00  0.00    +0.000 OA
ATOM    747  C3' A   B  69       3.288 -23.555 -11.325  0.00  0.00    +0.000 C 
ATOM    748  C2' A   B  69       3.385 -23.247  -9.843  0.00  0.00    +0.000 C 
ATOM    749  C1' A   B  69       4.687 -22.449  -9.772  0.00  0.00    +0.000 C 
BRANCH 749 750
ATOM    750  N9  A   B  69       4.471 -20.992  -9.789  0.00  0.00    +0.000 N 
ATOM    751  C8  A   B  69       4.846 -20.112 -10.772  0.00  0.00    +0.000 A 
ATOM    752  N7  A   B  69       4.529 -18.864 -10.517  0.00  0.00    +0.000 NA
ATOM    753  C5  A   B  69       3.907 -18.929  -9.280  0.00  0.00    +0.000 A 
ATOM    754  C6  A   B  69       3.342 -17.944  -8.456  0.00  0.00    +0.000 A 
ATOM    755  N6  A   B  69       3.309 -16.640  -8.772  0.00  0.00    +0.000 N 
ATOM    756  N1  A   B  69       2.803 -18.342  -7.288  0.00  0.00    +0.000 NA
ATOM    757  C2  A   B  69       2.836 -19.644  -6.973  0.00  0.00    +0.000 A 
ATOM    758  N3  A   B  69       3.337 -20.657  -7.662  0.00  0.00    +0.000 NA
ATOM    759  C4  A   B  69       3.866 -20.228  -8.820  0.00  0.00    +0.000 A 
ATOM    760  H   A   B  69       3.698 -16.329  -9.621  0.00  0.00    +0.000 HD
ATOM    761  H   A   B  69       2.896 -15.994  -8.154  0.00  0.00    +0.000 HD
ENDBRANCH 749 750
BRANCH 748 762
ATOM    762  O2' A   B  69       3.539 -24.437  -9.083  0.00  0.00    +0.000 OA
ATOM    763  H   A   B  69       4.316 -24.924  -9.399  0.00  0.00    +0.000 HD
ENDBRANCH 748 762
BRANCH 747 764
ATOM    764  O3' A   B  69       2.537 -24.725 -11.597  0.00  0.00    +0.000 OA
BRANCH 764 765
ATOM    765  P   A   B  70       1.385 -24.843 -12.628  0.00  0.00    +0.000 P 
ATOM    766  OP2 A   B  70       1.910 -24.572 -13.968  0.00  0.00    +0.000 OA
BRANCH 765 767
ATOM    767  OP1 A   B  70       0.685 -26.119 -12.354  0.00  0.00    +0.000 OA
ATOM    768  H   A   B  70      -0.046 -26.228 -12.982  0.00  0.00    +0.000 HD
ENDBRANCH 765 767
BRANCH 765 769
ATOM    769  O5' A   B  70       0.418 -23.658 -12.223  0.00  0.00    +0.000 OA
BRANCH 769 770
ATOM    770  C5' A   B  70       0.291 -22.517 -13.051  0.00  0.00    +0.000 C 
BRANCH 770 771
ATOM    771  C4' A   B  70      -1.158 -22.088 -13.144  0.00  0.00    +0.000 C 
ATOM    772  O4' A   B  70      -1.586 -21.544 -11.871  0.00  0.00    +0.000 OA
ATOM    773  C3' A   B  70      -1.446 -20.976 -14.133  0.00  0.00    +0.000 C 
ATOM    774  C2' A   B  70      -2.709 -20.342 -13.581  0.00  0.00    +0.000 C 
ATOM    775  C1' A   B  70      -2.528 -20.517 -12.070  0.00  0.00    +0.000 C 
BRANCH 775 776
ATOM    776  N9  A   B  70      -2.040 -19.288 -11.407  0.00  0.00    +0.000 N 
ATOM    777  C8  A   B  70      -2.760 -18.491 -10.555  0.00  0.00    +0.000 A 
ATOM    778  N7  A   B  70      -2.097 -17.462 -10.090  0.00  0.00    +0.000 NA
ATOM    779  C5  A   B  70      -0.850 -17.588 -10.677  0.00  0.00    +0.000 A 
ATOM    780  C6  A   B  70       0.316 -16.811 -10.586  0.00  0.00    +0.000 A 
ATOM    781  N6  A   B  70       0.406 -15.695  -9.839  0.00  0.00    +0.000 N 
ATOM    782  N1  A   B  70       1.391 -17.206 -11.293  0.00  0.00    +0.000 NA
ATOM    783  C2  A   B  70       1.299 -18.313 -12.039  0.00  0.00    +0.000 A 
ATOM    784  N3  A   B  70       0.259 -19.129 -12.207  0.00  0.00    +0.000 NA
ATOM    785  C4  A   B  70      -0.796 -18.712 -11.495  0.00  0.00    +0.000 A 
ATOM    786  H   A   B  70       1.249 -15.188  -9.812  0.00  0.00    +0.000 HD
ATOM    787  H   A   B  70      -0.371 -15.386  -9.320  0.00  0.00    +0.000 HD
ENDBRANCH 775 776
BRANCH 774 788
ATOM    788  O2' A   B  70      -3.849 -21.075 -13.995  0.00  0.00    +0.000 OA
ATOM    789  H   A   B  70      -3.755 -22.001 -13.722  0.00  0.00    +0.000 HD
ENDBRANCH 774 788
BRANCH 773 790
ATOM    790  O3' A   B  70      -1.572 -21.454 -15.470  0.00  0.00    +0.000 OA
BRANCH 790 791
ATOM    791  P   U   B  71      -0.628 -20.947 -16.630  0.00  0.00    +0.000 P 
ATOM    792  OP1 U   B  71      -1.050 -21.601 -17.897  0.00  0.00    +0.000 OA
BRANCH 791 793
ATOM    793  OP2 U   B  71       0.789 -21.041 -16.193  0.00  0.00    +0.000 OA
ATOM    794  H   U   B  71       1.369 -20.730 -16.906  0.00  0.00    +0.000 HD
ENDBRANCH 791 793
BRANCH 791 795
ATOM    795  O5' U   B  71      -1.018 -19.410 -16.714  0.00  0.00    +0.000 OA
BRANCH 795 796
ATOM    796  C5' U   B  71      -2.374 -19.012 -16.832  0.00  0.00    +0.000 C 
BRANCH 796 797
ATOM    797  C4' U   B  71      -2.511 -17.514 -16.765  0.00  0.00    +0.000 C 
ATOM    798  O4' U   B  71      -1.702 -17.015 -15.668  0.00  0.00    +0.000 OA
ATOM    799  C3' U   B  71      -2.042 -16.764 -18.009  0.00  0.00    +0.000 C 
ATOM    800  C2' U   B  71      -0.622 -16.382 -17.645  0.00  0.00    +0.000 C 
ATOM    801  C1' U   B  71      -0.786 -16.056 -16.157  0.00  0.00    +0.000 C 
BRANCH 801 802
ATOM    802  N1  U   B  71       0.455 -16.148 -15.382  0.00  0.00    +0.000 N 
ATOM    803  C2  U   B  71       0.807 -15.044 -14.626  0.00  0.00    +0.000 A 
ATOM    804  O2  U   B  71       0.120 -14.033 -14.581  0.00  0.00    +0.000 OA
ATOM    805  N3  U   B  71       1.977 -15.170 -13.925  0.00  0.00    +0.000 N 
ATOM    806  C4  U   B  71       2.816 -16.259 -13.897  0.00  0.00    +0.000 A 
ATOM    807  O4  U   B  71       3.836 -16.215 -13.214  0.00  0.00    +0.000 OA
ATOM    808  C5  U   B  71       2.391 -17.359 -14.709  0.00  0.00    +0.000 A 
ATOM    809  C6  U   B  71       1.253 -17.269 -15.406  0.00  0.00    +0.000 A 
ATOM    810  H   U   B  71       2.247 -14.395 -13.381  0.00  0.00    +0.000 HD
ENDBRANCH 801 802
BRANCH 800 811
ATOM    811  O2' U   B  71      -0.083 -15.288 -18.361  0.00  0.00    +0.000 OA
ATOM    812  H   U   B  71      -0.640 -14.506 -18.224  0.00  0.00    +0.000 HD
ENDBRANCH 800 811
BRANCH 799 813
ATOM    813  O3' U   B  71      -2.797 -15.569 -18.173  0.00  0.00    +0.000 OA
BRANCH 813 814
ATOM    814  P   C   B  72      -4.337 -15.566 -18.215  0.00  0.00    +0.000 P 
ATOM    815  OP2 C   B  72      -4.815 -16.418 -19.294  0.00  0.00    +0.000 OA
BRANCH 814 816
ATOM    816  OP1 C   B  72      -4.806 -15.783 -16.825  0.00  0.00    +0.000 OA
ATOM    817  H   C   B  72      -5.776 -15.788 -16.808  0.00  0.00    +0.000 HD
ENDBRANCH 814 816
BRANCH 814 818
ATOM    818  O5' C   B  72      -4.681 -14.006 -18.571  0.00  0.00    +0.000 OA
BRANCH 818 819
ATOM    819  C5' C   B  72      -3.709 -13.051 -18.881  0.00  0.00    +0.000 C 
BRANCH 819 820
ATOM    820  C4' C   B  72      -2.811 -12.732 -17.726  0.00  0.00    +0.000 C 
ATOM    821  O4' C   B  72      -1.445 -13.028 -18.145  0.00  0.00    +0.000 OA
ATOM    822  C3' C   B  72      -2.835 -11.287 -17.260  0.00  0.00    +0.000 C 
ATOM    823  C2' C   B  72      -1.496 -10.706 -17.717  0.00  0.00    +0.000 C 
ATOM    824  C1' C   B  72      -0.618 -11.929 -17.863  0.00  0.00    +0.000 C 
BRANCH 824 825
ATOM    825  N1  C   B  72       0.391 -11.825 -18.920  0.00  0.00    +0.000 N 
ATOM    826  C2  C   B  72       0.014 -11.947 -20.270  0.00  0.00    +0.000 A 
ATOM    827  O2  C   B  72      -1.173 -12.151 -20.580  0.00  0.00    +0.000 OA
ATOM    828  N3  C   B  72       0.982 -11.853 -21.224  0.00  0.00    +0.000 NA
ATOM    829  C4  C   B  72       2.260 -11.648 -20.883  0.00  0.00    +0.000 A 
ATOM    830  N4  C   B  72       3.163 -11.563 -21.864  0.00  0.00    +0.000 N 
ATOM    831  C5  C   B  72       2.663 -11.514 -19.525  0.00  0.00    +0.000 A 
ATOM    832  C6  C   B  72       1.707 -11.619 -18.582  0.00  0.00    +0.000 A 
ATOM    833  H   C   B  72       2.881 -11.656 -22.802  0.00  0.00    +0.000 HD
ATOM    834  H   C   B  72       4.111 -11.407 -21.648  0.00  0.00    +0.000 HD
ENDBRANCH 824 825
BRANCH 823 835
ATOM    835  O2' C   B  72      -0.904  -9.778 -16.824  0.00  0.00    +0.000 OA
ATOM    836  H   C   B  72      -0.742 -10.209 -15.970  0.00  0.00    +0.000 HD
ENDBRANCH 823 835
BRANCH 822 837
ATOM    837  O3' C   B  72      -3.049 -11.205 -15.841  0.00  0.00    +0.000 OA
BRANCH 837 838
ATOM    838  P   U   B  73      -2.321 -11.041 -14.613  0.00  0.00    +0.000 P 
ATOM    839  OP1 U   B  73      -1.132 -10.158 -14.743  0.00  0.00    +0.000 OA
BRANCH 838 840
ATOM    840  OP2 U   B  73      -2.206 -12.345 -13.973  0.00  0.00    +0.000 OA
ATOM    841  H   U   B  73      -1.512 -12.861 -14.413  0.00  0.00    +0.000 HD
ENDBRANCH 838 840
BRANCH 838 842
ATOM    842  O5' U   B  73      -3.484 -10.247 -13.834  0.00  0.00    +0.000 OA
BRANCH 842 843
ATOM    843  C5' U   B  73      -3.263  -9.417 -12.736  0.00  0.00    +0.000 C 
BRANCH 843 844
ATOM    844  C4' U   B  73      -3.264 -10.118 -11.399  0.00  0.00    +0.000 C 
ATOM    845  O4' U   B  73      -1.955 -10.671 -11.143  0.00  0.00    +0.000 OA
ATOM    846  C3' U   B  73      -3.521  -9.207 -10.208  0.00  0.00    +0.000 C 
ATOM    847  C2' U   B  73      -2.821  -9.922  -9.068  0.00  0.00    +0.000 C 
ATOM    848  C1' U   B  73      -1.619 -10.579  -9.777  0.00  0.00    +0.000 C 
BRANCH 848 849
ATOM    849  N1  U   B  73      -0.354  -9.819  -9.650  0.00  0.00    +0.000 N 
ATOM    850  C2  U   B  73       0.572  -9.893 -10.662  0.00  0.00    +0.000 A 
ATOM    851  O2  U   B  73       0.404 -10.535 -11.684  0.00  0.00    +0.000 OA
ATOM    852  N3  U   B  73       1.721  -9.169 -10.459  0.00  0.00    +0.000 N 
ATOM    853  C4  U   B  73       2.049  -8.410  -9.366  0.00  0.00    +0.000 A 
ATOM    854  O4  U   B  73       3.127  -7.817  -9.315  0.00  0.00    +0.000 OA
ATOM    855  C5  U   B  73       1.061  -8.399  -8.350  0.00  0.00    +0.000 A 
ATOM    856  C6  U   B  73      -0.072  -9.089  -8.527  0.00  0.00    +0.000 A 
ATOM    857  H   U   B  73       2.387  -9.199 -11.183  0.00  0.00    +0.000 HD
ENDBRANCH 848 849
BRANCH 847 858
ATOM    858  O2' U   B  73      -3.624 -10.928  -8.499  0.00  0.00    +0.000 OA
ATOM    859  H   U   B  73      -3.882 -11.563  -9.186  0.00  0.00    +0.000 HD
ENDBRANCH 847 858
BRANCH 846 860
ATOM    860  O3' U   B  73      -4.901  -9.028 -10.002  0.00  0.00    +0.000 OA
BRANCH 860 861
ATOM    861  P   C   B  74      -5.609  -7.746 -10.660  0.00  0.00    +0.000 P 
ATOM    862  OP2 C   B  74      -5.087  -7.558 -12.037  0.00  0.00    +0.000 OA
BRANCH 861 863
ATOM    863  OP1 C   B  74      -7.075  -7.876 -10.440  0.00  0.00    +0.000 OA
ATOM    864  H   C   B  74      -7.421  -8.601 -10.984  0.00  0.00    +0.000 HD
ENDBRANCH 861 863
BRANCH 861 865
ATOM    865  O5' C   B  74      -5.078  -6.559  -9.760  0.00  0.00    +0.000 OA
BRANCH 865 866
ATOM    866  C5' C   B  74      -5.370  -6.515  -8.374  0.00  0.00    +0.000 C 
BRANCH 866 867
ATOM    867  C4' C   B  74      -4.502  -5.518  -7.657  0.00  0.00    +0.000 C 
ATOM    868  O4' C   B  74      -3.240  -6.127  -7.270  0.00  0.00    +0.000 OA
ATOM    869  C3' C   B  74      -4.075  -4.308  -8.464  0.00  0.00    +0.000 C 
ATOM    870  C2' C   B  74      -2.853  -3.826  -7.690  0.00  0.00    +0.000 C 
ATOM    871  C1' C   B  74      -2.216  -5.153  -7.294  0.00  0.00    +0.000 C 
BRANCH 871 872
ATOM    872  N1  C   B  74      -1.185  -5.569  -8.268  0.00  0.00    +0.000 N 
ATOM    873  C2  C   B  74       0.109  -5.046  -8.121  0.00  0.00    +0.000 A 
ATOM    874  O2  C   B  74       0.336  -4.268  -7.188  0.00  0.00    +0.000 OA
ATOM    875  N3  C   B  74       1.073  -5.409  -9.005  0.00  0.00    +0.000 NA
ATOM    876  C4  C   B  74       0.788  -6.252 -10.002  0.00  0.00    +0.000 A 
ATOM    877  N4  C   B  74       1.777  -6.576 -10.844  0.00  0.00    +0.000 N 
ATOM    878  C5  C   B  74      -0.516  -6.793 -10.170  0.00  0.00    +0.000 A 
ATOM    879  C6  C   B  74      -1.463  -6.431  -9.292  0.00  0.00    +0.000 A 
ATOM    880  H   C   B  74       1.605  -7.194 -11.591  0.00  0.00    +0.000 HD
ATOM    881  H   C   B  74       2.676  -6.196 -10.717  0.00  0.00    +0.000 HD
ENDBRANCH 871 872
BRANCH 870 882
ATOM    882  O2' C   B  74      -3.227  -3.133  -6.525  0.00  0.00    +0.000 OA
ATOM    883  H   C   B  74      -3.798  -3.699  -5.981  0.00  0.00    +0.000 HD
ENDBRANCH 870 882
BRANCH 869 884
ATOM    884  O3' C   B  74      -5.093  -3.335  -8.595  0.00  0.00    +0.000 OA
BRANCH 884 885
ATOM    885  P   C   B  75      -5.320  -2.675 -10.006  0.00  0.00    +0.000 P 
ATOM    886  OP2 C   B  75      -5.383  -3.729 -11.048  0.00  0.00    +0.000 OA
BRANCH 885 887
ATOM    887  OP1 C   B  75      -6.444  -1.719  -9.850  0.00  0.00    +0.000 OA
ATOM    888  H   C   B  75      -6.620  -1.286 -10.700  0.00  0.00    +0.000 HD
ENDBRANCH 885 887
BRANCH 885 889
ATOM    889  O5' C   B  75      -3.979  -1.836 -10.221  0.00  0.00    +0.000 OA
BRANCH 889 890
ATOM    890  C5' C   B  75      -3.608  -0.821  -9.312  0.00  0.00    +0.000 C 
BRANCH 890 891
ATOM    891  C4' C   B  75      -2.189  -0.360  -9.526  0.00  0.00    +0.000 C 
ATOM    892  O4' C   B  75      -1.262  -1.453  -9.295  0.00  0.00    +0.000 OA
ATOM    893  C3' C   B  75      -1.832   0.107 -10.922  0.00  0.00    +0.000 C 
ATOM    894  C2' C   B  75      -0.310  -0.003 -10.910  0.00  0.00    +0.000 C 
ATOM    895  C1' C   B  75      -0.122  -1.290 -10.118  0.00  0.00    +0.000 C 
BRANCH 895 896
ATOM    896  N1  C   B  75       0.001  -2.458 -11.017  0.00  0.00    +0.000 N 
ATOM    897  C2  C   B  75       1.245  -2.690 -11.626  0.00  0.00    +0.000 A 
ATOM    898  O2  C   B  75       2.186  -1.924 -11.385  0.00  0.00    +0.000 OA
ATOM    899  N3  C   B  75       1.387  -3.748 -12.460  0.00  0.00    +0.000 NA
ATOM    900  C4  C   B  75       0.348  -4.552 -12.701  0.00  0.00    +0.000 A 
ATOM    901  N4  C   B  75       0.534  -5.582 -13.530  0.00  0.00    +0.000 N 
ATOM    902  C5  C   B  75      -0.922  -4.336 -12.097  0.00  0.00    +0.000 A 
ATOM    903  C6  C   B  75      -1.052  -3.290 -11.269  0.00  0.00    +0.000 A 
ATOM    904  H   C   B  75       1.415  -5.727 -13.945  0.00  0.00    +0.000 HD
ATOM    905  H   C   B  75      -0.210  -6.197 -13.726  0.00  0.00    +0.000 HD
ENDBRANCH 895 896
BRANCH 894 906
ATOM    906  O2' C   B  75       0.273   1.061 -10.194  0.00  0.00    +0.000 OA
ATOM    907  H   C   B  75      -0.096   1.088  -9.297  0.00  0.00    +0.000 HD
ENDBRANCH 894 906
BRANCH 893 908
ATOM    908  O3' C   B  75      -2.305   1.407 -11.220  0.00  0.00    +0.000 OA
BRANCH 908 909
ATOM    909  P   A   B  76      -2.836   1.671 -12.690  0.00  0.00    +0.000 P 
ATOM    910  OP2 A   B  76      -3.839   0.638 -13.044  0.00  0.00    +0.000 OA
BRANCH 909 911
ATOM    911  OP1 A   B  76      -3.201   3.107 -12.740  0.00  0.00    +0.000 OA
ATOM    912  H   A   B  76      -3.535   3.325 -13.624  0.00  0.00    +0.000 HD
ENDBRANCH 909 911
BRANCH 909 913
ATOM    913  O5' A   B  76      -1.544   1.448 -13.607  0.00  0.00    +0.000 OA
BRANCH 913 914
ATOM    914  C5' A   B  76      -0.403   2.267 -13.468  0.00  0.00    +0.000 C 
BRANCH 914 915
ATOM    915  C4' A   B  76       0.812   1.659 -14.127  0.00  0.00    +0.000 C 
ATOM    916  O4' A   B  76       0.992   0.300 -13.659  0.00  0.00    +0.000 OA
ATOM    917  C3' A   B  76       0.758   1.512 -15.635  0.00  0.00    +0.000 C 
ATOM    918  C2' A   B  76       1.769   0.410 -15.895  0.00  0.00    +0.000 C 
ATOM    919  C1' A   B  76       1.525  -0.501 -14.691  0.00  0.00    +0.000 C 
BRANCH 919 920
ATOM    920  N9  A   B  76       0.565  -1.571 -15.006  0.00  0.00    +0.000 N 
ATOM    921  C8  A   B  76      -0.774  -1.610 -14.716  0.00  0.00    +0.000 A 
ATOM    922  N7  A   B  76      -1.371  -2.699 -15.136  0.00  0.00    +0.000 NA
ATOM    923  C5  A   B  76      -0.359  -3.423 -15.746  0.00  0.00    +0.000 A 
ATOM    924  C6  A   B  76      -0.341  -4.673 -16.391  0.00  0.00    +0.000 A 
ATOM    925  N1  A   B  76       0.842  -5.105 -16.884  0.00  0.00    +0.000 NA
ATOM    926  C2  A   B  76       1.926  -4.330 -16.743  0.00  0.00    +0.000 A 
ATOM    927  N3  A   B  76       2.027  -3.138 -16.156  0.00  0.00    +0.000 NA
ATOM    928  C4  A   B  76       0.836  -2.741 -15.674  0.00  0.00    +0.000 A 
BRANCH 924 929
ATOM    929  N6  A   B  76      -1.423  -5.447 -16.533  0.00  0.00    +0.000 N 
ATOM    930  H   A   B  76      -1.351  -6.314 -16.994  0.00  0.00    +0.000 HD
ATOM    931  H   A   B  76      -2.291  -5.150 -16.176  0.00  0.00    +0.000 HD
ENDBRANCH 924 929
ENDBRANCH 919 920
BRANCH 918 932
ATOM    932  O2' A   B  76       3.096   0.900 -15.829  0.00  0.00    +0.000 OA
ATOM    933  H   A   B  76       3.241   1.325 -14.969  0.00  0.00    +0.000 HD
ENDBRANCH 918 932
BRANCH 917 934
ATOM    934  O3' A   B  76       1.046   2.714 -16.316  0.00  0.00    +0.000 OA
ATOM    935  H   A   B  76       1.925   3.031 -16.055  0.00  0.00    +0.000 HD
ENDBRANCH 917 934
ENDBRANCH 914 915
ENDBRANCH 913 914
ENDBRANCH 909 913
ENDBRANCH 908 909
ENDBRANCH 893 908
ENDBRANCH 890 891
ENDBRANCH 889 890
ENDBRANCH 885 889
ENDBRANCH 884 885
ENDBRANCH 869 884
ENDBRANCH 866 867
ENDBRANCH 865 866
ENDBRANCH 861 865
ENDBRANCH 860 861
ENDBRANCH 846 860
ENDBRANCH 843 844
ENDBRANCH 842 843
ENDBRANCH 838 842
ENDBRANCH 837 838
ENDBRANCH 822 837
ENDBRANCH 819 820
ENDBRANCH 818 819
ENDBRANCH 814 818
ENDBRANCH 813 814
ENDBRANCH 799 813
ENDBRANCH 796 797
ENDBRANCH 795 796
ENDBRANCH 791 795
ENDBRANCH 790 791
ENDBRANCH 773 790
ENDBRANCH 770 771
ENDBRANCH 769 770
ENDBRANCH 765 769
ENDBRANCH 764 765
ENDBRANCH 747 764
ENDBRANCH 744 745
ENDBRANCH 743 744
ENDBRANCH 739 743
ENDBRANCH 738 739
ENDBRANCH 721 738
ENDBRANCH 718 719
ENDBRANCH 717 718
ENDBRANCH 713 717
ENDBRANCH 712 713
ENDBRANCH 695 712
ENDBRANCH 692 693
ENDBRANCH 691 692
ENDBRANCH 687 691
ENDBRANCH 686 687
ENDBRANCH 669 686
ENDBRANCH 666 667
ENDBRANCH 665 666
ENDBRANCH 661 665
ENDBRANCH 660 661
ENDBRANCH 645 660
ENDBRANCH 642 643
ENDBRANCH 641 642
ENDBRANCH 637 641
ENDBRANCH 636 637
ENDBRANCH 619 636
ENDBRANCH 616 617
ENDBRANCH 615 616
ENDBRANCH 611 615
ENDBRANCH 610 611
ENDBRANCH 596 610
ENDBRANCH 593 594
ENDBRANCH 592 593
ENDBRANCH 588 592
ENDBRANCH 587 588
ENDBRANCH 572 587
ENDBRANCH 569 570
ENDBRANCH 568 569
ENDBRANCH 564 568
ENDBRANCH 563 564
ENDBRANCH 546 563
ENDBRANCH 543 544
ENDBRANCH 542 543
ENDBRANCH 538 542
ENDBRANCH 537 538
ENDBRANCH 518 537
ENDBRANCH 515 516
ENDBRANCH 514 515
ENDBRANCH 510 514
ENDBRANCH 509 510
ENDBRANCH 492 509
ENDBRANCH 489 490
ENDBRANCH 488 489
ENDBRANCH 484 488
ENDBRANCH 483 484
ENDBRANCH 468 483
ENDBRANCH 465 466
ENDBRANCH 464 465
ENDBRANCH 460 464
ENDBRANCH 459 460
ENDBRANCH 442 459
ENDBRANCH 439 440
ENDBRANCH 438 439
ENDBRANCH 434 438
ENDBRANCH 433 434
ENDBRANCH 416 433
ENDBRANCH 413 414
ENDBRANCH 412 413
ENDBRANCH 408 412
ENDBRANCH 407 408
ENDBRANCH 390 407
ENDBRANCH 387 388
ENDBRANCH 386 387
ENDBRANCH 382 386
ENDBRANCH 381 382
ENDBRANCH 364 381
ENDBRANCH 361 362
ENDBRANCH 360 361
ENDBRANCH 356 360
ENDBRANCH 355 356
ENDBRANCH 338 355
ENDBRANCH 335 336
ENDBRANCH 334 335
ENDBRANCH 330 334
ENDBRANCH 329 330
ENDBRANCH 315 329
ENDBRANCH 312 313
ENDBRANCH 311 312
ENDBRANCH 307 311
ENDBRANCH 306 307
ENDBRANCH 292 306
ENDBRANCH 289 290
ENDBRANCH 288 289
ENDBRANCH 284 288
ENDBRANCH 283 284
ENDBRANCH 269 283
ENDBRANCH 266 267
ENDBRANCH 265 266
ENDBRANCH 261 265
ENDBRANCH 260 261
ENDBRANCH 246 260
ENDBRANCH 243 244
ENDBRANCH 242 243
ENDBRANCH 238 242
ENDBRANCH 237 238
ENDBRANCH 220 237
ENDBRANCH 217 218
ENDBRANCH 216 217
ENDBRANCH 212 216
ENDBRANCH 211 212
ENDBRANCH 197 211
ENDBRANCH 194 195
ENDBRANCH 193 194
ENDBRANCH 189 193
ENDBRANCH 188 189
ENDBRANCH 174 188
ENDBRANCH 171 172
ENDBRANCH 170 171
ENDBRANCH 166 170
ENDBRANCH 165 166
ENDBRANCH 151 165
ENDBRANCH 148 149
ENDBRANCH 147 148
ENDBRANCH 143 147
ENDBRANCH 142 143
ENDBRANCH 127 142
ENDBRANCH 124 125
ENDBRANCH 123 124
ENDBRANCH 119 123
ENDBRANCH 118 119
ENDBRANCH 101 118
ENDBRANCH  98  99
ENDBRANCH  97  98
ENDBRANCH  93  97
ENDBRANCH  92  93
ENDBRANCH  39  92
ENDBRANCH   6   7
ENDBRANCH   5   6
ENDBRANCH   1   5
BRANCH   1 936
ATOM    936  O3' U   B  38     -10.560  17.868  23.192  0.00  0.00    +0.000 OA
BRANCH 936 939
ATOM    937  C4' U   B  38      -8.957  16.040  22.960  0.00  0.00    +0.000 C 
ATOM    938  O4' U   B  38      -7.520  15.945  23.126  0.00  0.00    +0.000 OA
ATOM    939  C3' U   B  38      -9.218  17.533  22.882  0.00  0.00    +0.000 C 
ATOM    940  C2' U   B  38      -8.205  18.098  23.868  0.00  0.00    +0.000 C 
ATOM    941  C1' U   B  38      -7.016  17.152  23.652  0.00  0.00    +0.000 C 
BRANCH 941 942
ATOM    942  N1  U   B  38      -6.026  17.710  22.704  0.00  0.00    +0.000 N 
ATOM    943  C2  U   B  38      -5.077  18.574  23.217  0.00  0.00    +0.000 A 
ATOM    944  O2  U   B  38      -5.032  18.886  24.394  0.00  0.00    +0.000 OA
ATOM    945  N3  U   B  38      -4.180  19.064  22.299  0.00  0.00    +0.000 N 
ATOM    946  C4  U   B  38      -4.136  18.781  20.948  0.00  0.00    +0.000 A 
ATOM    947  O4  U   B  38      -3.264  19.303  20.249  0.00  0.00    +0.000 OA
ATOM    948  C5  U   B  38      -5.149  17.879  20.494  0.00  0.00    +0.000 A 
ATOM    949  C6  U   B  38      -6.036  17.386  21.367  0.00  0.00    +0.000 A 
ATOM    950  H   U   B  38      -3.495  19.683  22.641  0.00  0.00    +0.000 HD
ENDBRANCH 941 942
BRANCH 940 951
ATOM    951  O2' U   B  38      -8.661  17.957  25.205  0.00  0.00    +0.000 OA
ATOM    952  H   U   B  38      -8.858  17.024  25.383  0.00  0.00    +0.000 HD
ENDBRANCH 940 951
BRANCH 937 953
ATOM    953  C5' U   B  38      -9.395  15.230  21.763  0.00  0.00    +0.000 C 
BRANCH 953 954
ATOM    954  O5' U   B  38      -8.844  15.733  20.567  0.00  0.00    +0.000 OA
BRANCH 954 955
ATOM    955  P   U   B  38      -8.900  14.880  19.220  0.00  0.00    +0.000 P 
ATOM    956  OP2 U   B  38      -8.072  15.571  18.201  0.00  0.00    +0.000 OA
BRANCH 955 957
ATOM    957  OP1 U   B  38     -10.321  14.557  18.931  0.00  0.00    +0.000 OA
ATOM    958  H   U   B  38     -10.375  14.037  18.114  0.00  0.00    +0.000 HD
ENDBRANCH 955 957
BRANCH 955 959
ATOM    959  O3' A   B  37      -8.181  13.528  19.638  0.00  0.00    +0.000 OA
BRANCH 959 962
ATOM    960  C4' A   B  37      -6.214  12.080  19.409  0.00  0.00    +0.000 C 
ATOM    961  O4' A   B  37      -4.878  12.118  19.967  0.00  0.00    +0.000 OA
ATOM    962  C3' A   B  37      -6.763  13.472  19.687  0.00  0.00    +0.000 C 
ATOM    963  C2' A   B  37      -6.184  13.777  21.062  0.00  0.00    +0.000 C 
ATOM    964  C1' A   B  37      -4.805  13.120  20.962  0.00  0.00    +0.000 C 
BRANCH 964 965
ATOM    965  N9  A   B  37      -3.756  14.090  20.591  0.00  0.00    +0.000 N 
ATOM    966  C8  A   B  37      -3.192  14.313  19.363  0.00  0.00    +0.000 A 
ATOM    967  N7  A   B  37      -2.275  15.253  19.364  0.00  0.00    +0.000 NA
ATOM    968  C5  A   B  37      -2.232  15.681  20.684  0.00  0.00    +0.000 A 
ATOM    969  C6  A   B  37      -1.466  16.657  21.345  0.00  0.00    +0.000 A 
ATOM    970  N1  A   B  37      -1.672  16.829  22.670  0.00  0.00    +0.000 NA
ATOM    971  C2  A   B  37      -2.589  16.065  23.282  0.00  0.00    +0.000 A 
ATOM    972  N3  A   B  37      -3.370  15.114  22.768  0.00  0.00    +0.000 NA
ATOM    973  C4  A   B  37      -3.139  14.972  21.450  0.00  0.00    +0.000 A 
BRANCH 969 974
ATOM    974  N6  A   B  37      -0.549  17.421  20.734  0.00  0.00    +0.000 N 
ATOM    975  H   A   B  37      -0.382  17.313  19.770  0.00  0.00    +0.000 HD
ATOM    976  H   A   B  37      -0.043  18.090  21.250  0.00  0.00    +0.000 HD
ENDBRANCH 969 974
ENDBRANCH 964 965
BRANCH 963 977
ATOM    977  O2' A   B  37      -6.922  13.120  22.081  0.00  0.00    +0.000 OA
ATOM    978  H   A   B  37      -6.945  12.167  21.900  0.00  0.00    +0.000 HD
ENDBRANCH 963 977
BRANCH 960 979
ATOM    979  C5' A   B  37      -6.168  11.667  17.958  0.00  0.00    +0.000 C 
BRANCH 979 980
ATOM    980  O5' A   B  37      -5.647  12.693  17.144  0.00  0.00    +0.000 OA
BRANCH 980 981
ATOM    981  P   A   B  37      -5.499  12.475  15.576  0.00  0.00    +0.000 P 
ATOM    982  OP2 A   B  37      -4.831  13.666  14.999  0.00  0.00    +0.000 OA
BRANCH 981 983
ATOM    983  OP1 A   B  37      -6.809  12.026  15.048  0.00  0.00    +0.000 OA
ATOM    984  H   A   B  37      -6.741  11.887  14.090  0.00  0.00    +0.000 HD
ENDBRANCH 981 983
BRANCH 981 985
ATOM    985  O3' U   B  36      -4.489  11.250  15.477  0.00  0.00    +0.000 OA
BRANCH 985 988
ATOM    986  C4' U   B  36      -2.220  10.540  14.891  0.00  0.00    +0.000 C 
ATOM    987  O4' U   B  36      -0.963  10.517  15.617  0.00  0.00    +0.000 OA
ATOM    988  C3' U   B  36      -3.108  11.446  15.724  0.00  0.00    +0.000 C 
ATOM    989  C2' U   B  36      -2.685  11.098  17.147  0.00  0.00    +0.000 C 
ATOM    990  C1' U   B  36      -1.180  10.878  16.963  0.00  0.00    +0.000 C 
BRANCH 990 991
ATOM    991  N1  U   B  36      -0.401  12.105  17.259  0.00  0.00    +0.000 N 
ATOM    992  C2  U   B  36      -0.160  12.405  18.589  0.00  0.00    +0.000 A 
ATOM    993  O2  U   B  36      -0.564  11.714  19.506  0.00  0.00    +0.000 OA
ATOM    994  N3  U   B  36       0.569  13.549  18.808  0.00  0.00    +0.000 N 
ATOM    995  C4  U   B  36       1.073  14.408  17.852  0.00  0.00    +0.000 A 
ATOM    996  O4  U   B  36       1.716  15.402  18.207  0.00  0.00    +0.000 OA
ATOM    997  C5  U   B  36       0.785  14.035  16.500  0.00  0.00    +0.000 A 
ATOM    998  C6  U   B  36       0.075  12.921  16.258  0.00  0.00    +0.000 A 
ATOM    999  H   U   B  36       0.751  13.781  19.747  0.00  0.00    +0.000 HD
ENDBRANCH 990 991
BRANCH 9891000
ATOM   1000  O2' U   B  36      -3.272   9.883  17.568  0.00  0.00    +0.000 OA
ATOM   1001  H   U   B  36      -3.046   9.180  16.939  0.00  0.00    +0.000 HD
ENDBRANCH 9891000
BRANCH 9861002
ATOM   1002  C5' U   B  36      -1.989  10.977  13.466  0.00  0.00    +0.000 C 
BRANCH10021003
ATOM   1003  O5' U   B  36      -1.444  12.277  13.404  0.00  0.00    +0.000 OA
BRANCH10031004
ATOM   1004  P   U   B  36      -0.928  12.884  12.025  0.00  0.00    +0.000 P 
ATOM   1005  OP1 U   B  36      -2.000  12.707  11.016  0.00  0.00    +0.000 OA
BRANCH10041006
ATOM   1006  OP2 U   B  36      -0.371  14.235  12.287  0.00  0.00    +0.000 OA
ATOM   1007  H   U   B  36      -0.052  14.620  11.456  0.00  0.00    +0.000 HD
ENDBRANCH10041006
BRANCH10041008
ATOM   1008  O3' A   B  35       0.263  11.921  11.628  0.00  0.00    +0.000 OA
BRANCH10081011
ATOM   1009  C4' A   B  35       2.694  11.595  11.638  0.00  0.00    +0.000 C 
ATOM   1010  O4' A   B  35       3.616  11.064  12.621  0.00  0.00    +0.000 OA
ATOM   1011  C3' A   B  35       1.425  11.852  12.434  0.00  0.00    +0.000 C 
ATOM   1012  C2' A   B  35       1.418  10.682  13.410  0.00  0.00    +0.000 C 
ATOM   1013  C1' A   B  35       2.903  10.549  13.728  0.00  0.00    +0.000 C 
BRANCH10131014
ATOM   1014  N9  A   B  35       3.273  11.320  14.931  0.00  0.00    +0.000 N 
ATOM   1015  C8  A   B  35       3.934  12.524  15.004  0.00  0.00    +0.000 A 
ATOM   1016  N7  A   B  35       4.115  12.952  16.232  0.00  0.00    +0.000 NA
ATOM   1017  C5  A   B  35       3.534  11.972  17.022  0.00  0.00    +0.000 A 
ATOM   1018  C6  A   B  35       3.390  11.831  18.413  0.00  0.00    +0.000 A 
ATOM   1019  N6  A   B  35       3.844  12.726  19.299  0.00  0.00    +0.000 N 
ATOM   1020  N1  A   B  35       2.756  10.729  18.871  0.00  0.00    +0.000 NA
ATOM   1021  C2  A   B  35       2.299   9.834  17.987  0.00  0.00    +0.000 A 
ATOM   1022  N3  A   B  35       2.376   9.853  16.657  0.00  0.00    +0.000 NA
ATOM   1023  C4  A   B  35       3.011  10.962  16.235  0.00  0.00    +0.000 A 
ATOM   1024  H   A   B  35       4.309  13.536  18.987  0.00  0.00    +0.000 HD
ATOM   1025  H   A   B  35       3.713  12.574  20.263  0.00  0.00    +0.000 HD
ENDBRANCH10131014
BRANCH10121026
ATOM   1026  O2' A   B  35       0.983   9.496  12.778  0.00  0.00    +0.000 OA
ATOM   1027  H   A   B  35       1.541   9.319  12.005  0.00  0.00    +0.000 HD
ENDBRANCH10121026
BRANCH10091028
ATOM   1028  C5' A   B  35       3.307  12.796  10.956  0.00  0.00    +0.000 C 
BRANCH10281029
ATOM   1029  O5' A   B  35       3.749  13.758  11.894  0.00  0.00    +0.000 OA
BRANCH10291030
ATOM   1030  P   A   B  35       4.858  14.830  11.496  0.00  0.00    +0.000 P 
ATOM   1031  OP1 A   B  35       4.456  15.455  10.212  0.00  0.00    +0.000 OA
BRANCH10301032
ATOM   1032  OP2 A   B  35       5.122  15.687  12.681  0.00  0.00    +0.000 OA
ATOM   1033  H   A   B  35       5.796  16.348  12.458  0.00  0.00    +0.000 HD
ENDBRANCH10301032
BRANCH10301034
ATOM   1034  O3' A   B  34       6.146  13.925  11.227  0.00  0.00    +0.000 OA
BRANCH10341037
ATOM   1035  C4' A   B  34       8.384  13.295  12.015  0.00  0.00    +0.000 C 
ATOM   1036  O4' A   B  34       8.860  12.315  12.971  0.00  0.00    +0.000 OA
ATOM   1037  C3' A   B  34       6.896  13.402  12.311  0.00  0.00    +0.000 C 
ATOM   1038  C2' A   B  34       6.537  11.962  12.662  0.00  0.00    +0.000 C 
ATOM   1039  C1' A   B  34       7.787  11.514  13.420  0.00  0.00    +0.000 C 
BRANCH10391040
ATOM   1040  N9  A   B  34       7.640  11.690  14.876  0.00  0.00    +0.000 N 
ATOM   1041  C8  A   B  34       8.116  12.712  15.662  0.00  0.00    +0.000 A 
ATOM   1042  N7  A   B  34       7.823  12.580  16.935  0.00  0.00    +0.000 NA
ATOM   1043  C5  A   B  34       7.102  11.395  16.993  0.00  0.00    +0.000 A 
ATOM   1044  C6  A   B  34       6.503  10.697  18.056  0.00  0.00    +0.000 A 
ATOM   1045  N6  A   B  34       6.537  11.116  19.328  0.00  0.00    +0.000 N 
ATOM   1046  N1  A   B  34       5.860   9.545  17.768  0.00  0.00    +0.000 NA
ATOM   1047  C2  A   B  34       5.823   9.125  16.498  0.00  0.00    +0.000 A 
ATOM   1048  N3  A   B  34       6.350   9.690  15.410  0.00  0.00    +0.000 NA
ATOM   1049  C4  A   B  34       6.981  10.836  15.732  0.00  0.00    +0.000 A 
ATOM   1050  H   A   B  34       7.001  11.953  19.558  0.00  0.00    +0.000 HD
ATOM   1051  H   A   B  34       6.098  10.587  20.033  0.00  0.00    +0.000 HD
ENDBRANCH10391040
BRANCH10381052
ATOM   1052  O2' A   B  34       6.408  11.173  11.495  0.00  0.00    +0.000 OA
ATOM   1053  H   A   B  34       7.226  11.226  10.977  0.00  0.00    +0.000 HD
ENDBRANCH10381052
BRANCH10351054
ATOM   1054  C5' A   B  34       9.178  14.576  12.146  0.00  0.00    +0.000 C 
BRANCH10541055
ATOM   1055  O5' A   B  34       9.032  15.152  13.432  0.00  0.00    +0.000 OA
BRANCH10551056
ATOM   1056  P   A   B  34      10.026  16.291  13.930  0.00  0.00    +0.000 P 
ATOM   1057  OP1 A   B  34      10.099  17.338  12.876  0.00  0.00    +0.000 OA
BRANCH10561058
ATOM   1058  OP2 A   B  34       9.653  16.668  15.317  0.00  0.00    +0.000 OA
ATOM   1059  H   A   B  34       8.798  17.125  15.309  0.00  0.00    +0.000 HD
ENDBRANCH10561058
BRANCH10561060
ATOM   1060  O3' U   B  33      11.442  15.539  13.986  0.00  0.00    +0.000 OA
BRANCH10601063
ATOM   1061  C4' U   B  33      13.221  14.698  15.444  0.00  0.00    +0.000 C 
ATOM   1062  O4' U   B  33      13.429  13.441  16.140  0.00  0.00    +0.000 OA
ATOM   1063  C3' U   B  33      11.753  14.665  15.060  0.00  0.00    +0.000 C 
ATOM   1064  C2' U   B  33      11.534  13.192  14.732  0.00  0.00    +0.000 C 
ATOM   1065  C1' U   B  33      12.424  12.517  15.780  0.00  0.00    +0.000 C 
BRANCH10651066
ATOM   1066  N1  U   B  33      11.661  12.144  16.996  0.00  0.00    +0.000 N 
ATOM   1067  C2  U   B  33      10.949  10.958  16.966  0.00  0.00    +0.000 A 
ATOM   1068  O2  U   B  33      10.924  10.225  15.993  0.00  0.00    +0.000 OA
ATOM   1069  N3  U   B  33      10.265  10.660  18.122  0.00  0.00    +0.000 N 
ATOM   1070  C4  U   B  33      10.224  11.413  19.277  0.00  0.00    +0.000 A 
ATOM   1071  O4  U   B  33       9.561  11.013  20.240  0.00  0.00    +0.000 OA
ATOM   1072  C5  U   B  33      10.983  12.625  19.231  0.00  0.00    +0.000 A 
ATOM   1073  C6  U   B  33      11.659  12.938  18.116  0.00  0.00    +0.000 A 
ATOM   1074  H   U   B  33       9.750   9.821  18.125  0.00  0.00    +0.000 HD
ENDBRANCH10651066
BRANCH10641075
ATOM   1075  O2' U   B  33      12.031  12.876  13.446  0.00  0.00    +0.000 OA
ATOM   1076  H   U   B  33      12.968  13.123  13.392  0.00  0.00    +0.000 HD
ENDBRANCH10641075
BRANCH10611077
ATOM   1077  C5' U   B  33      13.645  15.853  16.323  0.00  0.00    +0.000 C 
BRANCH10771078
ATOM   1078  O5' U   B  33      12.881  15.918  17.513  0.00  0.00    +0.000 OA
BRANCH10781079
ATOM   1079  P   U   B  33      13.331  16.850  18.730  0.00  0.00    +0.000 P 
ATOM   1080  OP1 U   B  33      13.547  18.223  18.208  0.00  0.00    +0.000 OA
BRANCH10791081
ATOM   1081  OP2 U   B  33      12.392  16.628  19.859  0.00  0.00    +0.000 OA
ATOM   1082  H   U   B  33      11.520  16.986  19.630  0.00  0.00    +0.000 HD
ENDBRANCH10791081
BRANCH10791083
ATOM   1083  O3' A   B  32      14.749  16.250  19.141  0.00  0.00    +0.000 OA
BRANCH10831086
ATOM   1084  C4' A   B  32      16.012  14.963  20.808  0.00  0.00    +0.000 C 
ATOM   1085  O4' A   B  32      16.242  13.542  21.003  0.00  0.00    +0.000 OA
ATOM   1086  C3' A   B  32      14.838  15.014  19.842  0.00  0.00    +0.000 C 
ATOM   1087  C2' A   B  32      15.106  13.819  18.938  0.00  0.00    +0.000 C 
ATOM   1088  C1' A   B  32      15.679  12.808  19.936  0.00  0.00    +0.000 C 
BRANCH10881089
ATOM   1089  N9  A   B  32      14.636  11.920  20.477  0.00  0.00    +0.000 N 
ATOM   1090  C8  A   B  32      13.993  12.013  21.687  0.00  0.00    +0.000 A 
ATOM   1091  N7  A   B  32      13.108  11.063  21.887  0.00  0.00    +0.000 NA
ATOM   1092  C5  A   B  32      13.170  10.293  20.733  0.00  0.00    +0.000 A 
ATOM   1093  C6  A   B  32      12.483   9.140  20.323  0.00  0.00    +0.000 A 
ATOM   1094  N6  A   B  32      11.548   8.532  21.068  0.00  0.00    +0.000 N 
ATOM   1095  N1  A   B  32      12.785   8.628  19.109  0.00  0.00    +0.000 NA
ATOM   1096  C2  A   B  32      13.714   9.235  18.363  0.00  0.00    +0.000 A 
ATOM   1097  N3  A   B  32      14.431  10.324  18.641  0.00  0.00    +0.000 NA
ATOM   1098  C4  A   B  32      14.106  10.809  19.856  0.00  0.00    +0.000 A 
ATOM   1099  H   A   B  32      11.097   7.725  20.730  0.00  0.00    +0.000 HD
ATOM   1100  H   A   B  32      11.312   8.893  21.953  0.00  0.00    +0.000 HD
ENDBRANCH10881089
BRANCH10871101
ATOM   1101  O2' A   B  32      16.106  14.123  17.979  0.00  0.00    +0.000 OA
ATOM   1102  H   A   B  32      16.909  14.422  18.433  0.00  0.00    +0.000 HD
ENDBRANCH10871101
BRANCH10841103
ATOM   1103  C5' A   B  32      15.793  15.633  22.142  0.00  0.00    +0.000 C 
BRANCH11031104
ATOM   1104  O5' A   B  32      14.680  15.084  22.825  0.00  0.00    +0.000 OA
BRANCH11041105
ATOM   1105  P   A   B  32      14.469  15.341  24.386  0.00  0.00    +0.000 P 
ATOM   1106  OP1 A   B  32      14.514  16.805  24.621  0.00  0.00    +0.000 OA
BRANCH11051107
ATOM   1107  OP2 A   B  32      13.286  14.559  24.829  0.00  0.00    +0.000 OA
ATOM   1108  H   A   B  32      12.484  14.934  24.433  0.00  0.00    +0.000 HD
ENDBRANCH11051107
BRANCH11051109
ATOM   1109  O3' A   B  31      15.776  14.703  25.053  0.00  0.00    +0.000 OA
BRANCH11091112
ATOM   1110  C4' A   B  31      16.682  12.879  26.422  0.00  0.00    +0.000 C 
ATOM   1111  O4' A   B  31      17.113  11.525  26.121  0.00  0.00    +0.000 OA
ATOM   1112  C3' A   B  31      15.885  13.291  25.196  0.00  0.00    +0.000 C 
ATOM   1113  C2' A   B  31      16.655  12.621  24.066  0.00  0.00    +0.000 C 
ATOM   1114  C1' A   B  31      17.074  11.304  24.726  0.00  0.00    +0.000 C 
BRANCH11141115
ATOM   1115  N9  A   B  31      16.113  10.219  24.450  0.00  0.00    +0.000 N 
ATOM   1116  C8  A   B  31      15.107   9.756  25.262  0.00  0.00    +0.000 A 
ATOM   1117  N7  A   B  31      14.417   8.772  24.734  0.00  0.00    +0.000 NA
ATOM   1118  C5  A   B  31      15.006   8.570  23.494  0.00  0.00    +0.000 A 
ATOM   1119  C6  A   B  31      14.742   7.671  22.450  0.00  0.00    +0.000 A 
ATOM   1120  N1  A   B  31      15.519   7.739  21.348  0.00  0.00    +0.000 NA
ATOM   1121  C2  A   B  31      16.498   8.651  21.301  0.00  0.00    +0.000 A 
ATOM   1122  N3  A   B  31      16.847   9.550  22.222  0.00  0.00    +0.000 NA
ATOM   1123  C4  A   B  31      16.052   9.456  23.306  0.00  0.00    +0.000 A 
BRANCH11191124
ATOM   1124  N6  A   B  31      13.759   6.761  22.491  0.00  0.00    +0.000 N 
ATOM   1125  H   A   B  31      13.618   6.154  21.729  0.00  0.00    +0.000 HD
ATOM   1126  H   A   B  31      13.178   6.700  23.283  0.00  0.00    +0.000 HD
ENDBRANCH11191124
ENDBRANCH11141115
BRANCH11131127
ATOM   1127  O2' A   B  31      17.825  13.358  23.743  0.00  0.00    +0.000 OA
ATOM   1128  H   A   B  31      18.369  13.467  24.539  0.00  0.00    +0.000 HD
ENDBRANCH11131127
BRANCH11101129
ATOM   1129  C5' A   B  31      15.931  12.898  27.731  0.00  0.00    +0.000 C 
BRANCH11291130
ATOM   1130  O5' A   B  31      14.779  12.071  27.685  0.00  0.00    +0.000 OA
BRANCH11301131
ATOM   1131  P   A   B  31      14.034  11.630  29.027  0.00  0.00    +0.000 P 
ATOM   1132  OP2 A   B  31      12.944  10.687  28.668  0.00  0.00    +0.000 OA
BRANCH11311133
ATOM   1133  OP1 A   B  31      13.720  12.855  29.806  0.00  0.00    +0.000 OA
ATOM   1134  H   A   B  31      13.037  13.366  29.344  0.00  0.00    +0.000 HD
ENDBRANCH11311133
BRANCH11311135
ATOM   1135  O3' A   B  30      15.158  10.830  29.829  0.00  0.00    +0.000 OA
BRANCH11351138
ATOM   1136  C4' A   B  30      15.908   8.648  30.657  0.00  0.00    +0.000 C 
ATOM   1137  O4' A   B  30      16.621   7.539  30.045  0.00  0.00    +0.000 OA
ATOM   1138  C3' A   B  30      15.455   9.486  29.474  0.00  0.00    +0.000 C 
ATOM   1139  C2' A   B  30      16.625   9.350  28.512  0.00  0.00    +0.000 C 
ATOM   1140  C1' A   B  30      17.039   7.895  28.743  0.00  0.00    +0.000 C 
BRANCH11401141
ATOM   1141  N9  A   B  30      16.397   6.980  27.780  0.00  0.00    +0.000 N 
ATOM   1142  C8  A   B  30      15.274   6.212  27.962  0.00  0.00    +0.000 A 
ATOM   1143  N7  A   B  30      14.953   5.497  26.907  0.00  0.00    +0.000 NA
ATOM   1144  C5  A   B  30      15.927   5.813  25.971  0.00  0.00    +0.000 A 
ATOM   1145  C6  A   B  30      16.154   5.390  24.652  0.00  0.00    +0.000 A 
ATOM   1146  N1  A   B  30      17.218   5.903  23.999  0.00  0.00    +0.000 NA
ATOM   1147  C2  A   B  30      18.000   6.782  24.631  0.00  0.00    +0.000 A 
ATOM   1148  N3  A   B  30      17.894   7.257  25.875  0.00  0.00    +0.000 NA
ATOM   1149  C4  A   B  30      16.823   6.727  26.496  0.00  0.00    +0.000 A 
BRANCH11451150
ATOM   1150  N6  A   B  30      15.368   4.513  24.014  0.00  0.00    +0.000 N 
ATOM   1151  H   A   B  30      15.574   4.251  23.088  0.00  0.00    +0.000 HD
ATOM   1152  H   A   B  30      14.585   4.131  24.471  0.00  0.00    +0.000 HD
ENDBRANCH11451150
ENDBRANCH11401141
BRANCH11391153
ATOM   1153  O2' A   B  30      17.700  10.192  28.899  0.00  0.00    +0.000 OA
ATOM   1154  H   A   B  30      17.956   9.991  29.813  0.00  0.00    +0.000 HD
ENDBRANCH11391153
BRANCH11361155
ATOM   1155  C5' A   B  30      14.810   8.120  31.550  0.00  0.00    +0.000 C 
BRANCH11551156
ATOM   1156  O5' A   B  30      13.859   7.365  30.820  0.00  0.00    +0.000 OA
BRANCH11561157
ATOM   1157  P   A   B  30      12.835   6.396  31.570  0.00  0.00    +0.000 P 
ATOM   1158  OP2 A   B  30      12.069   5.644  30.545  0.00  0.00    +0.000 OA
BRANCH11571159
ATOM   1159  OP1 A   B  30      12.110   7.191  32.592  0.00  0.00    +0.000 OA
ATOM   1160  H   A   B  30      11.514   7.817  32.152  0.00  0.00    +0.000 HD
ENDBRANCH11571159
BRANCH11571161
ATOM   1161  O3' A   B  29      13.798   5.384  32.330  0.00  0.00    +0.000 OA
BRANCH11611164
ATOM   1162  C4' A   B  29      14.567   3.065  32.507  0.00  0.00    +0.000 C 
ATOM   1163  O4' A   B  29      15.568   2.288  31.796  0.00  0.00    +0.000 OA
ATOM   1164  C3' A   B  29      14.371   4.288  31.630  0.00  0.00    +0.000 C 
ATOM   1165  C2' A   B  29      15.780   4.553  31.124  0.00  0.00    +0.000 C 
ATOM   1166  C1' A   B  29      16.304   3.130  30.933  0.00  0.00    +0.000 C 
BRANCH11661167
ATOM   1167  N9  A   B  29      16.126   2.657  29.548  0.00  0.00    +0.000 N 
ATOM   1168  C8  A   B  29      15.133   1.854  29.046  0.00  0.00    +0.000 A 
ATOM   1169  N7  A   B  29      15.257   1.608  27.761  0.00  0.00    +0.000 NA
ATOM   1170  C5  A   B  29      16.406   2.294  27.393  0.00  0.00    +0.000 A 
ATOM   1171  C6  A   B  29      17.080   2.436  26.171  0.00  0.00    +0.000 A 
ATOM   1172  N1  A   B  29      18.197   3.190  26.149  0.00  0.00    +0.000 NA
ATOM   1173  C2  A   B  29      18.607   3.764  27.287  0.00  0.00    +0.000 A 
ATOM   1174  N3  A   B  29      18.062   3.703  28.504  0.00  0.00    +0.000 NA
ATOM   1175  C4  A   B  29      16.950   2.946  28.486  0.00  0.00    +0.000 A 
BRANCH11711176
ATOM   1176  N6  A   B  29      16.670   1.867  25.031  0.00  0.00    +0.000 N 
ATOM   1177  H   A   B  29      17.183   2.001  24.202  0.00  0.00    +0.000 HD
ATOM   1178  H   A   B  29      15.855   1.314  25.022  0.00  0.00    +0.000 HD
ENDBRANCH11711176
ENDBRANCH11661167
BRANCH11651179
ATOM   1179  O2' A   B  29      16.565   5.197  32.116  0.00  0.00    +0.000 OA
ATOM   1180  H   A   B  29      16.566   4.662  32.925  0.00  0.00    +0.000 HD
ENDBRANCH11651179
BRANCH11621181
ATOM   1181  C5' A   B  29      13.338   2.222  32.748  0.00  0.00    +0.000 C 
BRANCH11811182
ATOM   1182  O5' A   B  29      12.693   1.874  31.533  0.00  0.00    +0.000 OA
BRANCH11821183
ATOM   1183  P   A   B  29      11.632   0.687  31.488  0.00  0.00    +0.000 P 
ATOM   1184  OP2 A   B  29      11.258   0.449  30.074  0.00  0.00    +0.000 OA
BRANCH11831185
ATOM   1185  OP1 A   B  29      10.575   0.972  32.488  0.00  0.00    +0.000 OA
ATOM   1186  H   A   B  29      10.040   1.724  32.188  0.00  0.00    +0.000 HD
ENDBRANCH11831185
BRANCH11831187
ATOM   1187  O3' U   B  28      12.493  -0.549  32.004  0.00  0.00    +0.000 OA
BRANCH11871190
ATOM   1188  C4' U   B  28      13.277  -2.765  31.334  0.00  0.00    +0.000 C 
ATOM   1189  O4' U   B  28      14.480  -3.243  30.674  0.00  0.00    +0.000 OA
ATOM   1190  C3' U   B  28      13.302  -1.269  31.089  0.00  0.00    +0.000 C 
ATOM   1191  C2' U   B  28      14.784  -0.944  31.188  0.00  0.00    +0.000 C 
ATOM   1192  C1' U   B  28      15.406  -2.182  30.533  0.00  0.00    +0.000 C 
BRANCH11921193
ATOM   1193  N1  U   B  28      15.673  -1.980  29.090  0.00  0.00    +0.000 N 
ATOM   1194  C2  U   B  28      16.842  -1.325  28.746  0.00  0.00    +0.000 A 
ATOM   1195  O2  U   B  28      17.643  -0.921  29.573  0.00  0.00    +0.000 OA
ATOM   1196  N3  U   B  28      17.046  -1.163  27.397  0.00  0.00    +0.000 N 
ATOM   1197  C4  U   B  28      16.213  -1.580  26.381  0.00  0.00    +0.000 A 
ATOM   1198  O4  U   B  28      16.531  -1.360  25.210  0.00  0.00    +0.000 OA
ATOM   1199  C5  U   B  28      15.021  -2.246  26.818  0.00  0.00    +0.000 A 
ATOM   1200  C6  U   B  28      14.798  -2.418  28.125  0.00  0.00    +0.000 A 
ATOM   1201  H   U   B  28      17.873  -0.701  27.128  0.00  0.00    +0.000 HD
ENDBRANCH11921193
BRANCH11911202
ATOM   1202  O2' U   B  28      15.207  -0.891  32.539  0.00  0.00    +0.000 OA
ATOM   1203  H   U   B  28      14.991  -1.728  32.979  0.00  0.00    +0.000 HD
ENDBRANCH11911202
BRANCH11881204
ATOM   1204  C5' U   B  28      12.072  -3.494  30.798  0.00  0.00    +0.000 C 
BRANCH12041205
ATOM   1205  O5' U   B  28      11.728  -3.058  29.492  0.00  0.00    +0.000 OA
BRANCH12051206
ATOM   1206  P   U   B  28      10.862  -3.973  28.531  0.00  0.00    +0.000 P 
ATOM   1207  OP2 U   B  28      10.916  -3.406  27.165  0.00  0.00    +0.000 OA
BRANCH12061208
ATOM   1208  OP1 U   B  28       9.549  -4.220  29.174  0.00  0.00    +0.000 OA
ATOM   1209  H   U   B  28       9.006  -4.780  28.597  0.00  0.00    +0.000 HD
ENDBRANCH12061208
BRANCH12061210
ATOM   1210  O3' U   B  27      11.686  -5.341  28.559  0.00  0.00    +0.000 OA
BRANCH12101213
ATOM   1211  C4' U   B  27      12.278  -6.588  26.556  0.00  0.00    +0.000 C 
ATOM   1212  O4' U   B  27      13.523  -7.106  26.033  0.00  0.00    +0.000 OA
ATOM   1213  C3' U   B  27      12.704  -5.572  27.600  0.00  0.00    +0.000 C 
ATOM   1214  C2' U   B  27      13.966  -6.181  28.180  0.00  0.00    +0.000 C 
ATOM   1215  C1' U   B  27      14.578  -6.830  26.932  0.00  0.00    +0.000 C 
BRANCH12151216
ATOM   1216  N1  U   B  27      15.538  -5.936  26.238  0.00  0.00    +0.000 N 
ATOM   1217  C2  U   B  27      16.709  -5.576  26.884  0.00  0.00    +0.000 A 
ATOM   1218  O2  U   B  27      17.000  -5.947  28.008  0.00  0.00    +0.000 OA
ATOM   1219  N3  U   B  27      17.540  -4.754  26.165  0.00  0.00    +0.000 N 
ATOM   1220  C4  U   B  27      17.327  -4.272  24.891  0.00  0.00    +0.000 A 
ATOM   1221  O4  U   B  27      18.167  -3.543  24.370  0.00  0.00    +0.000 OA
ATOM   1222  C5  U   B  27      16.099  -4.690  24.286  0.00  0.00    +0.000 A 
ATOM   1223  C6  U   B  27      15.269  -5.489  24.963  0.00  0.00    +0.000 A 
ATOM   1224  H   U   B  27      18.377  -4.479  26.605  0.00  0.00    +0.000 HD
ENDBRANCH12151216
BRANCH12141225
ATOM   1225  O2' U   B  27      13.664  -7.200  29.111  0.00  0.00    +0.000 OA
ATOM   1226  H   U   B  27      13.103  -7.869  28.688  0.00  0.00    +0.000 HD
ENDBRANCH12141225
BRANCH12111227
ATOM   1227  C5' U   B  27      11.446  -6.036  25.428  0.00  0.00    +0.000 C 
BRANCH12271228
ATOM   1228  O5' U   B  27      10.960  -7.081  24.598  0.00  0.00    +0.000 OA
BRANCH12281229
ATOM   1229  P   U   B  27      11.148  -7.010  23.021  0.00  0.00    +0.000 P 
ATOM   1230  OP1 U   B  27       9.796  -6.960  22.393  0.00  0.00    +0.000 OA
BRANCH12291231
ATOM   1231  OP2 U   B  27      12.127  -5.940  22.718  0.00  0.00    +0.000 OA
ATOM   1232  H   U   B  27      12.255  -5.881  21.758  0.00  0.00    +0.000 HD
ENDBRANCH12291231
BRANCH12291233
ATOM   1233  O3' U   B  26      11.817  -8.415  22.689  0.00  0.00    +0.000 OA
BRANCH12331236
ATOM   1234  C4' U   B  26      13.404  -9.546  21.229  0.00  0.00    +0.000 C 
ATOM   1235  O4' U   B  26      14.824  -9.834  21.325  0.00  0.00    +0.000 OA
ATOM   1236  C3' U   B  26      13.174  -8.489  22.289  0.00  0.00    +0.000 C 
ATOM   1237  C2' U   B  26      14.117  -8.918  23.403  0.00  0.00    +0.000 C 
ATOM   1238  C1' U   B  26      15.308  -9.458  22.600  0.00  0.00    +0.000 C 
BRANCH12381239
ATOM   1239  N1  U   B  26      16.372  -8.445  22.418  0.00  0.00    +0.000 N 
ATOM   1240  C2  U   B  26      17.252  -8.247  23.466  0.00  0.00    +0.000 A 
ATOM   1241  O2  U   B  26      17.184  -8.861  24.513  0.00  0.00    +0.000 OA
ATOM   1242  N3  U   B  26      18.221  -7.300  23.244  0.00  0.00    +0.000 N 
ATOM   1243  C4  U   B  26      18.395  -6.546  22.103  0.00  0.00    +0.000 A 
ATOM   1244  O4  U   B  26      19.316  -5.728  22.048  0.00  0.00    +0.000 OA
ATOM   1245  C5  U   B  26      17.446  -6.807  21.065  0.00  0.00    +0.000 A 
ATOM   1246  C6  U   B  26      16.492  -7.726  21.254  0.00  0.00    +0.000 A 
ATOM   1247  H   U   B  26      18.859  -7.143  23.977  0.00  0.00    +0.000 HD
ENDBRANCH12381239
BRANCH12371248
ATOM   1248  O2' U   B  26      13.565  -9.986  24.156  0.00  0.00    +0.000 OA
ATOM   1249  H   U   B  26      13.349 -10.722  23.562  0.00  0.00    +0.000 HD
ENDBRANCH12371248
BRANCH12341250
ATOM   1250  C5' U   B  26      13.056  -9.141  19.817  0.00  0.00    +0.000 C 
BRANCH12501251
ATOM   1251  O5' U   B  26      13.662  -7.922  19.459  0.00  0.00    +0.000 OA
BRANCH12511252
ATOM   1252  P   U   B  26      13.672  -7.425  17.947  0.00  0.00    +0.000 P 
ATOM   1253  OP1 U   B  26      12.268  -7.312  17.485  0.00  0.00    +0.000 OA
BRANCH12521254
ATOM   1254  OP2 U   B  26      14.582  -6.257  17.849  0.00  0.00    +0.000 OA
ATOM   1255  H   U   B  26      14.602  -5.939  16.933  0.00  0.00    +0.000 HD
ENDBRANCH12521254
BRANCH12521256
ATOM   1256  O3' U   B  25      14.342  -8.656  17.176  0.00  0.00    +0.000 OA
BRANCH12561259
ATOM   1257  C4' U   B  25      16.306  -9.461  15.964  0.00  0.00    +0.000 C 
ATOM   1258  O4' U   B  25      17.578 -10.028  16.382  0.00  0.00    +0.000 OA
ATOM   1259  C3' U   B  25      15.747  -8.847  17.233  0.00  0.00    +0.000 C 
ATOM   1260  C2' U   B  25      16.185  -9.836  18.301  0.00  0.00    +0.000 C 
ATOM   1261  C1' U   B  25      17.571 -10.245  17.779  0.00  0.00    +0.000 C 
BRANCH12611262
ATOM   1262  N1  U   B  25      18.654  -9.440  18.385  0.00  0.00    +0.000 N 
ATOM   1263  C2  U   B  25      19.071  -9.790  19.655  0.00  0.00    +0.000 A 
ATOM   1264  O2  U   B  25      18.590 -10.715  20.279  0.00  0.00    +0.000 OA
ATOM   1265  N3  U   B  25      20.080  -9.014  20.171  0.00  0.00    +0.000 N 
ATOM   1266  C4  U   B  25      20.698  -7.947  19.558  0.00  0.00    +0.000 A 
ATOM   1267  O4  U   B  25      21.594  -7.343  20.149  0.00  0.00    +0.000 OA
ATOM   1268  C5  U   B  25      20.211  -7.645  18.248  0.00  0.00    +0.000 A 
ATOM   1269  C6  U   B  25      19.229  -8.386  17.722  0.00  0.00    +0.000 A 
ATOM   1270  H   U   B  25      20.395  -9.245  21.075  0.00  0.00    +0.000 HD
ENDBRANCH12611262
BRANCH12601271
ATOM   1271  O2' U   B  25      15.353 -10.982  18.304  0.00  0.00    +0.000 OA
ATOM   1272  H   U   B  25      15.348 -11.381  17.420  0.00  0.00    +0.000 HD
ENDBRANCH12601271
BRANCH12571273
ATOM   1273  C5' U   B  25      16.523  -8.510  14.811  0.00  0.00    +0.000 C 
BRANCH12731274
ATOM   1274  O5' U   B  25      17.295  -7.394  15.195  0.00  0.00    +0.000 OA
BRANCH12741275
ATOM   1275  P   U   B  25      17.849  -6.369  14.102  0.00  0.00    +0.000 P 
ATOM   1276  OP1 U   B  25      16.697  -5.879  13.302  0.00  0.00    +0.000 OA
BRANCH12751277
ATOM   1277  OP2 U   B  25      18.742  -5.401  14.787  0.00  0.00    +0.000 OA
ATOM   1278  H   U   B  25      19.090  -4.768  14.140  0.00  0.00    +0.000 HD
ENDBRANCH12751277
BRANCH12751279
ATOM   1279  O3' U   B  24      18.740  -7.306  13.153  0.00  0.00    +0.000 OA
BRANCH12791282
ATOM   1280  C4' U   B  24      21.026  -7.873  12.493  0.00  0.00    +0.000 C 
ATOM   1281  O4' U   B  24      22.021  -8.796  13.019  0.00  0.00    +0.000 OA
ATOM   1282  C3' U   B  24      20.002  -7.769  13.606  0.00  0.00    +0.000 C 
ATOM   1283  C2' U   B  24      19.967  -9.187  14.156  0.00  0.00    +0.000 C 
ATOM   1284  C1' U   B  24      21.443  -9.589  14.037  0.00  0.00    +0.000 C 
BRANCH12841285
ATOM   1285  N1  U   B  24      22.184  -9.353  15.296  0.00  0.00    +0.000 N 
ATOM   1286  C2  U   B  24      22.068 -10.313  16.286  0.00  0.00    +0.000 A 
ATOM   1287  O2  U   B  24      21.399 -11.320  16.160  0.00  0.00    +0.000 OA
ATOM   1288  N3  U   B  24      22.775 -10.049  17.433  0.00  0.00    +0.000 N 
ATOM   1289  C4  U   B  24      23.564  -8.948  17.686  0.00  0.00    +0.000 A 
ATOM   1290  O4  U   B  24      24.140  -8.851  18.770  0.00  0.00    +0.000 OA
ATOM   1291  C5  U   B  24      23.629  -8.002  16.616  0.00  0.00    +0.000 A 
ATOM   1292  C6  U   B  24      22.950  -8.233  15.485  0.00  0.00    +0.000 A 
ATOM   1293  H   U   B  24      22.711 -10.718  18.152  0.00  0.00    +0.000 HD
ENDBRANCH12841285
BRANCH12831294
ATOM   1294  O2' U   B  24      19.206 -10.039  13.319  0.00  0.00    +0.000 OA
ATOM   1295  H   U   B  24      19.562 -10.008  12.417  0.00  0.00    +0.000 HD
ENDBRANCH12831294
BRANCH12801296
ATOM   1296  C5' U   B  24      21.692  -6.581  12.084  0.00  0.00    +0.000 C 
BRANCH12961297
ATOM   1297  O5' U   B  24      22.231  -5.893  13.197  0.00  0.00    +0.000 OA
BRANCH12971298
ATOM   1298  P   U   B  24      23.137  -4.599  12.992  0.00  0.00    +0.000 P 
ATOM   1299  OP1 U   B  24      22.397  -3.640  12.134  0.00  0.00    +0.000 OA
BRANCH12981300
ATOM   1300  OP2 U   B  24      23.635  -4.168  14.322  0.00  0.00    +0.000 OA
ATOM   1301  H   U   B  24      24.190  -3.379  14.219  0.00  0.00    +0.000 HD
ENDBRANCH12981300
BRANCH12981302
ATOM   1302  O3' U   B  23      24.379  -5.161  12.147  0.00  0.00    +0.000 OA
BRANCH13021305
ATOM   1303  C4' U   B  23      26.753  -5.733  12.291  0.00  0.00    +0.000 C 
ATOM   1304  O4' U   B  23      27.471  -6.953  12.626  0.00  0.00    +0.000 OA
ATOM   1305  C3' U   B  23      25.341  -5.998  12.772  0.00  0.00    +0.000 C 
ATOM   1306  C2' U   B  23      25.158  -7.476  12.462  0.00  0.00    +0.000 C 
ATOM   1307  C1' U   B  23      26.558  -8.021  12.770  0.00  0.00    +0.000 C 
BRANCH13071308
ATOM   1308  N1  U   B  23      26.656  -8.537  14.153  0.00  0.00    +0.000 N 
ATOM   1309  C2  U   B  23      26.202  -9.824  14.383  0.00  0.00    +0.000 A 
ATOM   1310  O2  U   B  23      25.734 -10.527  13.509  0.00  0.00    +0.000 OA
ATOM   1311  N3  U   B  23      26.319 -10.257  15.681  0.00  0.00    +0.000 N 
ATOM   1312  C4  U   B  23      26.831  -9.550  16.748  0.00  0.00    +0.000 A 
ATOM   1313  O4  U   B  23      26.869 -10.077  17.860  0.00  0.00    +0.000 OA
ATOM   1314  C5  U   B  23      27.278  -8.232  16.429  0.00  0.00    +0.000 A 
ATOM   1315  C6  U   B  23      27.177  -7.782  15.171  0.00  0.00    +0.000 A 
ATOM   1316  H   U   B  23      26.003 -11.170  15.870  0.00  0.00    +0.000 HD
ENDBRANCH13071308
BRANCH13061317
ATOM   1317  O2' U   B  23      24.898  -7.677  11.084  0.00  0.00    +0.000 OA
ATOM   1318  H   U   B  23      25.611  -7.281  10.559  0.00  0.00    +0.000 HD
ENDBRANCH13061317
BRANCH13031319
ATOM   1319  C5' U   B  23      27.444  -4.544  12.913  0.00  0.00    +0.000 C 
BRANCH13191320
ATOM   1320  O5' U   B  23      27.325  -4.546  14.324  0.00  0.00    +0.000 OA
BRANCH13201321
ATOM   1321  P   U   B  23      28.092  -3.470  15.210  0.00  0.00    +0.000 P 
ATOM   1322  OP1 U   B  23      27.791  -2.123  14.668  0.00  0.00    +0.000 OA
BRANCH13211323
ATOM   1323  OP2 U   B  23      27.822  -3.771  16.639  0.00  0.00    +0.000 OA
ATOM   1324  H   U   B  23      26.892  -3.581  16.839  0.00  0.00    +0.000 HD
ENDBRANCH13211323
BRANCH13211325
ATOM   1325  O3' C   B  22      29.637  -3.798  14.923  0.00  0.00    +0.000 OA
BRANCH13251328
ATOM   1326  C4' C   B  22      31.675  -4.658  15.963  0.00  0.00    +0.000 C 
ATOM   1327  O4' C   B  22      32.266  -5.983  16.059  0.00  0.00    +0.000 OA
ATOM   1328  C3' C   B  22      30.248  -4.928  15.528  0.00  0.00    +0.000 C 
ATOM   1329  C2' C   B  22      30.409  -6.110  14.582  0.00  0.00    +0.000 C 
ATOM   1330  C1' C   B  22      31.530  -6.897  15.271  0.00  0.00    +0.000 C 
BRANCH13301331
ATOM   1331  N1  C   B  22      31.001  -7.964  16.152  0.00  0.00    +0.000 N 
ATOM   1332  C2  C   B  22      30.611  -9.175  15.574  0.00  0.00    +0.000 A 
ATOM   1333  O2  C   B  22      30.716  -9.323  14.349  0.00  0.00    +0.000 OA
ATOM   1334  N3  C   B  22      30.127 -10.160  16.368  0.00  0.00    +0.000 NA
ATOM   1335  C4  C   B  22      30.028  -9.970  17.685  0.00  0.00    +0.000 A 
ATOM   1336  N4  C   B  22      29.546 -10.970  18.428  0.00  0.00    +0.000 N 
ATOM   1337  C5  C   B  22      30.416  -8.749  18.297  0.00  0.00    +0.000 A 
ATOM   1338  C6  C   B  22      30.893  -7.781  17.500  0.00  0.00    +0.000 A 
ATOM   1339  H   C   B  22      29.278 -11.816  18.001  0.00  0.00    +0.000 HD
ATOM   1340  H   C   B  22      29.459 -10.861  19.403  0.00  0.00    +0.000 HD
ENDBRANCH13301331
BRANCH13291341
ATOM   1341  O2' C   B  22      30.875  -5.688  13.311  0.00  0.00    +0.000 OA
ATOM   1342  H   C   B  22      31.704  -5.196  13.418  0.00  0.00    +0.000 HD
ENDBRANCH13291341
BRANCH13261343
ATOM   1343  C5' C   B  22      31.833  -3.928  17.274  0.00  0.00    +0.000 C 
BRANCH13431344
ATOM   1344  O5' C   B  22      31.128  -4.569  18.322  0.00  0.00    +0.000 OA
BRANCH13441345
ATOM   1345  P   C   B  22      31.304  -4.098  19.834  0.00  0.00    +0.000 P 
ATOM   1346  OP1 C   B  22      31.039  -2.639  19.897  0.00  0.00    +0.000 OA
BRANCH13451347
ATOM   1347  OP2 C   B  22      30.532  -5.029  20.701  0.00  0.00    +0.000 OA
ATOM   1348  H   C   B  22      29.583  -4.906  20.543  0.00  0.00    +0.000 HD
ENDBRANCH13451347
BRANCH13451349
ATOM   1349  O3' A   B  21      32.873  -4.322  20.115  0.00  0.00    +0.000 OA
BRANCH13491352
ATOM   1350  C4' A   B  21      34.539  -5.748  21.213  0.00  0.00    +0.000 C 
ATOM   1351  O4' A   B  21      35.210  -6.978  20.827  0.00  0.00    +0.000 OA
ATOM   1352  C3' A   B  21      33.379  -5.644  20.239  0.00  0.00    +0.000 C 
ATOM   1353  C2' A   B  21      33.985  -6.185  18.952  0.00  0.00    +0.000 C 
ATOM   1354  C1' A   B  21      34.881  -7.301  19.489  0.00  0.00    +0.000 C 
BRANCH13541355
ATOM   1355  N9  A   B  21      34.194  -8.605  19.469  0.00  0.00    +0.000 N 
ATOM   1356  C8  A   B  21      33.678  -9.305  20.531  0.00  0.00    +0.000 A 
ATOM   1357  N7  A   B  21      33.123 -10.446  20.187  0.00  0.00    +0.000 NA
ATOM   1358  C5  A   B  21      33.286 -10.497  18.808  0.00  0.00    +0.000 A 
ATOM   1359  C6  A   B  21      32.919 -11.447  17.844  0.00  0.00    +0.000 A 
ATOM   1360  N1  A   B  21      33.229 -11.190  16.557  0.00  0.00    +0.000 NA
ATOM   1361  C2  A   B  21      33.868 -10.050  16.260  0.00  0.00    +0.000 A 
ATOM   1362  N3  A   B  21      34.268  -9.080  17.080  0.00  0.00    +0.000 NA
ATOM   1363  C4  A   B  21      33.942  -9.369  18.354  0.00  0.00    +0.000 A 
BRANCH13591364
ATOM   1364  N6  A   B  21      32.278 -12.587  18.134  0.00  0.00    +0.000 N 
ATOM   1365  H   A   B  21      32.045 -13.218  17.415  0.00  0.00    +0.000 HD
ATOM   1366  H   A   B  21      32.040 -12.794  19.066  0.00  0.00    +0.000 HD
ENDBRANCH13591364
ENDBRANCH13541355
BRANCH13531367
ATOM   1367  O2' A   B  21      34.808  -5.210  18.326  0.00  0.00    +0.000 OA
ATOM   1368  H   A   B  21      35.489  -4.913  18.950  0.00  0.00    +0.000 HD
ENDBRANCH13531367
BRANCH13501369
ATOM   1369  C5' A   B  21      34.173  -5.798  22.676  0.00  0.00    +0.000 C 
BRANCH13691370
ATOM   1370  O5' A   B  21      33.305  -6.886  22.959  0.00  0.00    +0.000 OA
BRANCH13701371
ATOM   1371  P   A   B  21      33.019  -7.322  24.469  0.00  0.00    +0.000 P 
ATOM   1372  OP2 A   B  21      32.162  -8.534  24.443  0.00  0.00    +0.000 OA
BRANCH13711373
ATOM   1373  OP1 A   B  21      32.576  -6.123  25.220  0.00  0.00    +0.000 OA
ATOM   1374  H   A   B  21      31.698  -5.853  24.909  0.00  0.00    +0.000 HD
ENDBRANCH13711373
BRANCH13711375
ATOM   1375  O3' A   B  20      34.475  -7.728  25.020  0.00  0.00    +0.000 OA
BRANCH13751378
ATOM   1376  C4' A   B  20      35.955  -9.583  25.644  0.00  0.00    +0.000 C 
ATOM   1377  O4' A   B  20      36.821 -10.466  24.881  0.00  0.00    +0.000 OA
ATOM   1378  C3' A   B  20      35.066  -8.946  24.591  0.00  0.00    +0.000 C 
ATOM   1379  C2' A   B  20      36.020  -8.777  23.418  0.00  0.00    +0.000 C 
ATOM   1380  C1' A   B  20      36.853 -10.054  23.527  0.00  0.00    +0.000 C 
BRANCH13801381
ATOM   1381  N9  A   B  20      36.299 -11.134  22.692  0.00  0.00    +0.000 N 
ATOM   1382  C8  A   B  20      35.563 -12.221  23.094  0.00  0.00    +0.000 A 
ATOM   1383  N7  A   B  20      35.210 -13.012  22.105  0.00  0.00    +0.000 NA
ATOM   1384  C5  A   B  20      35.749 -12.403  20.979  0.00  0.00    +0.000 A 
ATOM   1385  C6  A   B  20      35.732 -12.740  19.619  0.00  0.00    +0.000 A 
ATOM   1386  N1  A   B  20      36.364 -11.919  18.759  0.00  0.00    +0.000 NA
ATOM   1387  C2  A   B  20      36.974 -10.826  19.237  0.00  0.00    +0.000 A 
ATOM   1388  N3  A   B  20      37.061 -10.402  20.497  0.00  0.00    +0.000 NA
ATOM   1389  C4  A   B  20      36.420 -11.245  21.328  0.00  0.00    +0.000 A 
BRANCH13851390
ATOM   1390  N6  A   B  20      35.120 -13.829  19.134  0.00  0.00    +0.000 N 
ATOM   1391  H   A   B  20      35.141 -14.016  18.168  0.00  0.00    +0.000 HD
ATOM   1392  H   A   B  20      34.650 -14.442  19.744  0.00  0.00    +0.000 HD
ENDBRANCH13851390
ENDBRANCH13801381
BRANCH13791393
ATOM   1393  O2' A   B  20      36.878  -7.663  23.614  0.00  0.00    +0.000 OA
ATOM   1394  H   A   B  20      37.351  -7.763  24.455  0.00  0.00    +0.000 HD
ENDBRANCH13791393
BRANCH13761395
ATOM   1395  C5' A   B  20      35.248 -10.366  26.720  0.00  0.00    +0.000 C 
BRANCH13951396
ATOM   1396  O5' A   B  20      34.430 -11.393  26.171  0.00  0.00    +0.000 OA
BRANCH13961397
ATOM   1397  P   A   B  20      33.873 -12.568  27.091  0.00  0.00    +0.000 P 
ATOM   1398  OP2 A   B  20      33.138 -13.526  26.228  0.00  0.00    +0.000 OA
BRANCH13971399
ATOM   1399  OP1 A   B  20      33.191 -11.956  28.259  0.00  0.00    +0.000 OA
ATOM   1400  H   A   B  20      32.378 -11.516  27.965  0.00  0.00    +0.000 HD
ENDBRANCH13971399
BRANCH13971401
ATOM   1401  O3' A   B  19      35.205 -13.281  27.620  0.00  0.00    +0.000 OA
BRANCH14011404
ATOM   1402  C4' A   B  19      36.532 -15.342  27.522  0.00  0.00    +0.000 C 
ATOM   1403  O4' A   B  19      37.594 -15.801  26.648  0.00  0.00    +0.000 OA
ATOM   1404  C3' A   B  19      35.918 -14.173  26.771  0.00  0.00    +0.000 C 
ATOM   1405  C2' A   B  19      37.126 -13.539  26.098  0.00  0.00    +0.000 C 
ATOM   1406  C1' A   B  19      37.947 -14.777  25.738  0.00  0.00    +0.000 C 
BRANCH14061407
ATOM   1407  N9  A   B  19      37.661 -15.250  24.372  0.00  0.00    +0.000 N 
ATOM   1408  C8  A   B  19      36.925 -16.345  23.997  0.00  0.00    +0.000 A 
ATOM   1409  N7  A   B  19      36.849 -16.511  22.697  0.00  0.00    +0.000 NA
ATOM   1410  C5  A   B  19      37.587 -15.453  22.181  0.00  0.00    +0.000 A 
ATOM   1411  C6  A   B  19      37.893 -15.062  20.870  0.00  0.00    +0.000 A 
ATOM   1412  N1  A   B  19      38.650 -13.960  20.700  0.00  0.00    +0.000 NA
ATOM   1413  C2  A   B  19      39.070 -13.294  21.786  0.00  0.00    +0.000 A 
ATOM   1414  N3  A   B  19      38.850 -13.563  23.072  0.00  0.00    +0.000 NA
ATOM   1415  C4  A   B  19      38.092 -14.669  23.203  0.00  0.00    +0.000 A 
BRANCH14111416
ATOM   1416  N6  A   B  19      37.473 -15.720  19.783  0.00  0.00    +0.000 N 
ATOM   1417  H   A   B  19      37.720 -15.397  18.886  0.00  0.00    +0.000 HD
ATOM   1418  H   A   B  19      36.917 -16.527  19.880  0.00  0.00    +0.000 HD
ENDBRANCH14111416
ENDBRANCH14061407
BRANCH14051419
ATOM   1419  O2' A   B  19      37.868 -12.754  27.019  0.00  0.00    +0.000 OA
ATOM   1420  H   A   B  19      38.120 -13.300  27.780  0.00  0.00    +0.000 HD
ENDBRANCH14051419
BRANCH14021421
ATOM   1421  C5' A   B  19      35.596 -16.483  27.830  0.00  0.00    +0.000 C 
BRANCH14211422
ATOM   1422  O5' A   B  19      34.919 -16.938  26.665  0.00  0.00    +0.000 OA
BRANCH14221423
ATOM   1423  P   A   B  19      34.019 -18.247  26.699  0.00  0.00    +0.000 P 
ATOM   1424  OP2 A   B  19      33.565 -18.541  25.316  0.00  0.00    +0.000 OA
BRANCH14231425
ATOM   1425  OP1 A   B  19      33.019 -18.089  27.786  0.00  0.00    +0.000 OA
ATOM   1426  H   A   B  19      32.386 -17.394  27.545  0.00  0.00    +0.000 HD
ENDBRANCH14231425
BRANCH14231427
ATOM   1427  O3' G   B  18      35.034 -19.389  27.129  0.00  0.00    +0.000 OA
BRANCH14271430
ATOM   1428  C4' G   B  18      36.140 -21.430  26.378  0.00  0.00    +0.000 C 
ATOM   1429  O4' G   B  18      37.415 -21.695  25.750  0.00  0.00    +0.000 OA
ATOM   1430  C3' G   B  18      35.936 -19.935  26.184  0.00  0.00    +0.000 C 
ATOM   1431  C2' G   B  18      37.348 -19.387  26.293  0.00  0.00    +0.000 C 
ATOM   1432  C1' G   B  18      38.156 -20.499  25.616  0.00  0.00    +0.000 C 
BRANCH14321433
ATOM   1433  N9  G   B  18      38.342 -20.236  24.175  0.00  0.00    +0.000 N 
ATOM   1434  C8  G   B  18      37.823 -20.961  23.131  0.00  0.00    +0.000 A 
ATOM   1435  N7  G   B  18      38.158 -20.488  21.963  0.00  0.00    +0.000 NA
ATOM   1436  C5  G   B  18      38.952 -19.385  22.254  0.00  0.00    +0.000 A 
ATOM   1437  C6  G   B  18      39.609 -18.475  21.396  0.00  0.00    +0.000 A 
ATOM   1438  O6  G   B  18      39.625 -18.454  20.156  0.00  0.00    +0.000 OA
ATOM   1439  N1  G   B  18      40.308 -17.504  22.108  0.00  0.00    +0.000 NA
ATOM   1440  C2  G   B  18      40.365 -17.423  23.477  0.00  0.00    +0.000 A 
ATOM   1441  N2  G   B  18      41.087 -16.420  23.992  0.00  0.00    +0.000 N 
ATOM   1442  N3  G   B  18      39.759 -18.270  24.291  0.00  0.00    +0.000 N 
ATOM   1443  C4  G   B  18      39.076 -19.220  23.617  0.00  0.00    +0.000 A 
ATOM   1444  H   G   B  18      41.542 -15.784  23.394  0.00  0.00    +0.000 HD
ATOM   1445  H   G   B  18      41.163 -16.319  24.968  0.00  0.00    +0.000 HD
ATOM   1446  H   G   B  18      39.801 -18.215  25.273  0.00  0.00    +0.000 HD
ENDBRANCH14321433
BRANCH14311447
ATOM   1447  O2' G   B  18      37.758 -19.302  27.651  0.00  0.00    +0.000 OA
ATOM   1448  H   G   B  18      37.674 -20.173  28.069  0.00  0.00    +0.000 HD
ENDBRANCH14311447
BRANCH14281449
ATOM   1449  C5' G   B  18      35.089 -22.317  25.776  0.00  0.00    +0.000 C 
BRANCH14491450
ATOM   1450  O5' G   B  18      35.311 -23.676  26.092  0.00  0.00    +0.000 OA
BRANCH14501451
ATOM   1451  P   G   B  18      35.770 -24.715  24.965  0.00  0.00    +0.000 P 
ATOM   1452  OP2 G   B  18      36.766 -24.051  24.085  0.00  0.00    +0.000 OA
BRANCH14511453
ATOM   1453  OP1 G   B  18      34.553 -25.313  24.364  0.00  0.00    +0.000 OA
ATOM   1454  H   G   B  18      34.810 -25.947  23.677  0.00  0.00    +0.000 HD
ENDBRANCH14511453
BRANCH14511455
ATOM   1455  O3' C   B  17      36.528 -25.820  25.806  0.00  0.00    +0.000 OA
BRANCH14551458
ATOM   1456  C4' C   B  17      38.582 -26.612  26.860  0.00  0.00    +0.000 C 
ATOM   1457  O4' C   B  17      39.251 -26.294  28.103  0.00  0.00    +0.000 OA
ATOM   1458  C3' C   B  17      37.611 -25.465  26.656  0.00  0.00    +0.000 C 
ATOM   1459  C2' C   B  17      37.178 -25.135  28.076  0.00  0.00    +0.000 C 
ATOM   1460  C1' C   B  17      38.474 -25.386  28.851  0.00  0.00    +0.000 C 
BRANCH14601461
ATOM   1461  N1  C   B  17      39.259 -24.151  29.057  0.00  0.00    +0.000 N 
ATOM   1462  C2  C   B  17      38.902 -23.297  30.105  0.00  0.00    +0.000 A 
ATOM   1463  O2  C   B  17      37.942 -23.600  30.831  0.00  0.00    +0.000 OA
ATOM   1464  N3  C   B  17      39.618 -22.161  30.301  0.00  0.00    +0.000 NA
ATOM   1465  C4  C   B  17      40.648 -21.866  29.506  0.00  0.00    +0.000 A 
ATOM   1466  N4  C   B  17      41.322 -20.739  29.739  0.00  0.00    +0.000 N 
ATOM   1467  C5  C   B  17      41.032 -22.715  28.436  0.00  0.00    +0.000 A 
ATOM   1468  C6  C   B  17      40.319 -23.837  28.249  0.00  0.00    +0.000 A 
ATOM   1469  H   C   B  17      42.087 -20.496  29.168  0.00  0.00    +0.000 HD
ATOM   1470  H   C   B  17      41.055 -20.150  30.482  0.00  0.00    +0.000 HD
ENDBRANCH14601461
BRANCH14591471
ATOM   1471  O2' C   B  17      36.191 -26.044  28.532  0.00  0.00    +0.000 OA
ATOM   1472  H   C   B  17      36.528 -26.951  28.458  0.00  0.00    +0.000 HD
ENDBRANCH14591471
BRANCH14561473
ATOM   1473  C5' C   B  17      39.607 -26.800  25.771  0.00  0.00    +0.000 C 
BRANCH14731474
ATOM   1474  O5' C   B  17      40.362 -25.616  25.559  0.00  0.00    +0.000 OA
BRANCH14741475
ATOM   1475  P   C   B  17      41.651 -25.625  24.631  0.00  0.00    +0.000 P 
ATOM   1476  OP1 C   B  17      41.260 -26.163  23.316  0.00  0.00    +0.000 OA
BRANCH14751477
ATOM   1477  OP2 C   B  17      42.299 -24.294  24.729  0.00  0.00    +0.000 OA
ATOM   1478  H   C   B  17      43.090 -24.278  24.168  0.00  0.00    +0.000 HD
ENDBRANCH14751477
BRANCH14751479
ATOM   1479  O3' C   B  16      42.613 -26.680  25.350  0.00  0.00    +0.000 OA
BRANCH14791482
ATOM   1480  C4' C   B  16      44.696 -27.071  26.575  0.00  0.00    +0.000 C 
ATOM   1481  O4' C   B  16      45.045 -27.045  27.975  0.00  0.00    +0.000 OA
ATOM   1482  C3' C   B  16      43.366 -26.343  26.503  0.00  0.00    +0.000 C 
ATOM   1483  C2' C   B  16      42.693 -26.750  27.800  0.00  0.00    +0.000 C 
ATOM   1484  C1' C   B  16      43.887 -26.804  28.749  0.00  0.00    +0.000 C 
BRANCH14841485
ATOM   1485  N1  C   B  16      44.070 -25.539  29.493  0.00  0.00    +0.000 N 
ATOM   1486  C2  C   B  16      43.290 -25.316  30.629  0.00  0.00    +0.000 A 
ATOM   1487  O2  C   B  16      42.470 -26.175  30.985  0.00  0.00    +0.000 OA
ATOM   1488  N3  C   B  16      43.451 -24.158  31.321  0.00  0.00    +0.000 NA
ATOM   1489  C4  C   B  16      44.345 -23.254  30.914  0.00  0.00    +0.000 A 
ATOM   1490  N4  C   B  16      44.465 -22.135  31.627  0.00  0.00    +0.000 N 
ATOM   1491  C5  C   B  16      45.151 -23.460  29.764  0.00  0.00    +0.000 A 
ATOM   1492  C6  C   B  16      44.984 -24.610  29.089  0.00  0.00    +0.000 A 
ATOM   1493  H   C   B  16      45.114 -21.446  31.356  0.00  0.00    +0.000 HD
ATOM   1494  H   C   B  16      43.904 -21.997  32.424  0.00  0.00    +0.000 HD
ENDBRANCH14841485
BRANCH14831495
ATOM   1495  O2' C   B  16      42.133 -28.047  27.697  0.00  0.00    +0.000 OA
ATOM   1496  H   C   B  16      42.822 -28.676  27.432  0.00  0.00    +0.000 HD
ENDBRANCH14831495
BRANCH14801497
ATOM   1497  C5' C   B  16      45.821 -26.472  25.776  0.00  0.00    +0.000 C 
BRANCH14971498
ATOM   1498  O5' C   B  16      46.211 -25.234  26.322  0.00  0.00    +0.000 OA
BRANCH14981499
ATOM   1499  P   C   B  16      47.663 -24.636  26.037  0.00  0.00    +0.000 P 
ATOM   1500  OP2 C   B  16      48.638 -25.738  26.188  0.00  0.00    +0.000 OA
BRANCH14991501
ATOM   1501  OP1 C   B  16      47.821 -23.380  26.833  0.00  0.00    +0.000 OA
ATOM   1502  H   C   B  16      48.700 -23.003  26.671  0.00  0.00    +0.000 HD
ENDBRANCH14991501
BRANCH14991503
ATOM   1503  O3' U   B  15      47.581 -24.269  24.498  0.00  0.00    +0.000 OA
BRANCH15031506
ATOM   1504  C4' U   B  15      47.170 -21.895  24.510  0.00  0.00    +0.000 C 
ATOM   1505  O4' U   B  15      46.292 -21.638  23.374  0.00  0.00    +0.000 OA
ATOM   1506  C3' U   B  15      48.111 -23.016  24.068  0.00  0.00    +0.000 C 
ATOM   1507  C2' U   B  15      48.038 -22.952  22.546  0.00  0.00    +0.000 C 
ATOM   1508  C1' U   B  15      46.587 -22.541  22.342  0.00  0.00    +0.000 C 
BRANCH15081509
ATOM   1509  N1  U   B  15      46.320 -21.906  21.031  0.00  0.00    +0.000 N 
ATOM   1510  C2  U   B  15      46.882 -20.678  20.733  0.00  0.00    +0.000 A 
ATOM   1511  O2  U   B  15      47.601 -20.045  21.483  0.00  0.00    +0.000 OA
ATOM   1512  N3  U   B  15      46.561 -20.184  19.488  0.00  0.00    +0.000 N 
ATOM   1513  C4  U   B  15      45.761 -20.781  18.535  0.00  0.00    +0.000 A 
ATOM   1514  O4  U   B  15      45.584 -20.202  17.461  0.00  0.00    +0.000 OA
ATOM   1515  C5  U   B  15      45.227 -22.041  18.921  0.00  0.00    +0.000 A 
ATOM   1516  C6  U   B  15      45.515 -22.548  20.129  0.00  0.00    +0.000 A 
ATOM   1517  H   U   B  15      46.945 -19.309  19.252  0.00  0.00    +0.000 HD
ENDBRANCH15081509
BRANCH15071518
ATOM   1518  O2' U   B  15      48.333 -24.166  21.873  0.00  0.00    +0.000 OA
ATOM   1519  H   U   B  15      47.719 -24.857  22.168  0.00  0.00    +0.000 HD
ENDBRANCH15071518
BRANCH15041520
ATOM   1520  C5' U   B  15      47.843 -20.617  24.951  0.00  0.00    +0.000 C 
BRANCH15201521
ATOM   1521  O5' U   B  15      48.611 -20.032  23.904  0.00  0.00    +0.000 OA
BRANCH15211522
ATOM   1522  P   U   B  15      49.359 -18.650  24.115  0.00  0.00    +0.000 P 
ATOM   1523  OP2 U   B  15      49.784 -18.136  22.792  0.00  0.00    +0.000 OA
BRANCH15221524
ATOM   1524  OP1 U   B  15      50.358 -18.828  25.198  0.00  0.00    +0.000 OA
ATOM   1525  H   U   B  15      51.064 -19.419  24.893  0.00  0.00    +0.000 HD
ENDBRANCH15221524
BRANCH15221526
ATOM   1526  O3' A   B  14      48.224 -17.671  24.672  0.00  0.00    +0.000 OA
BRANCH15261529
ATOM   1527  C4' A   B  14      46.757 -15.822  24.025  0.00  0.00    +0.000 C 
ATOM   1528  O4' A   B  14      45.404 -15.762  23.512  0.00  0.00    +0.000 OA
ATOM   1529  C3' A   B  14      47.146 -17.276  23.839  0.00  0.00    +0.000 C 
ATOM   1530  C2' A   B  14      45.851 -18.006  24.142  0.00  0.00    +0.000 C 
ATOM   1531  C1' A   B  14      44.823 -17.050  23.534  0.00  0.00    +0.000 C 
BRANCH15311532
ATOM   1532  N9  A   B  14      44.457 -17.435  22.162  0.00  0.00    +0.000 N 
ATOM   1533  C8  A   B  14      44.823 -16.833  20.981  0.00  0.00    +0.000 A 
ATOM   1534  N7  A   B  14      44.328 -17.422  19.915  0.00  0.00    +0.000 NA
ATOM   1535  C5  A   B  14      43.588 -18.481  20.435  0.00  0.00    +0.000 A 
ATOM   1536  C6  A   B  14      42.817 -19.484  19.829  0.00  0.00    +0.000 A 
ATOM   1537  N1  A   B  14      42.210 -20.383  20.628  0.00  0.00    +0.000 NA
ATOM   1538  C2  A   B  14      42.372 -20.277  21.954  0.00  0.00    +0.000 A 
ATOM   1539  N3  A   B  14      43.070 -19.378  22.642  0.00  0.00    +0.000 NA
ATOM   1540  C4  A   B  14      43.661 -18.498  21.811  0.00  0.00    +0.000 A 
BRANCH15361541
ATOM   1541  N6  A   B  14      42.656 -19.598  18.501  0.00  0.00    +0.000 N 
ATOM   1542  H   A   B  14      43.089 -18.954  17.896  0.00  0.00    +0.000 HD
ATOM   1543  H   A   B  14      42.105 -20.326  18.133  0.00  0.00    +0.000 HD
ENDBRANCH15361541
ENDBRANCH15311532
BRANCH15301544
ATOM   1544  O2' A   B  14      45.627 -18.088  25.537  0.00  0.00    +0.000 OA
ATOM   1545  H   A   B  14      45.639 -17.197  25.919  0.00  0.00    +0.000 HD
ENDBRANCH15301544
BRANCH15271546
ATOM   1546  C5' A   B  14      47.621 -14.804  23.321  0.00  0.00    +0.000 C 
BRANCH15461547
ATOM   1547  O5' A   B  14      47.664 -15.034  21.922  0.00  0.00    +0.000 OA
BRANCH15471548
ATOM   1548  P   A   B  14      48.322 -13.964  20.944  0.00  0.00    +0.000 P 
ATOM   1549  OP2 A   B  14      48.154 -14.452  19.552  0.00  0.00    +0.000 OA
BRANCH15481550
ATOM   1550  OP1 A   B  14      49.672 -13.635  21.453  0.00  0.00    +0.000 OA
ATOM   1551  H   A   B  14      50.088 -12.983  20.868  0.00  0.00    +0.000 HD
ENDBRANCH15481550
BRANCH15481552
ATOM   1552  O3' C   B  13      47.400 -12.670  21.131  0.00  0.00    +0.000 OA
BRANCH15521555
ATOM   1553  C4' C   B  13      45.584 -11.316  20.199  0.00  0.00    +0.000 C 
ATOM   1554  O4' C   B  13      44.138 -11.452  20.205  0.00  0.00    +0.000 OA
ATOM   1555  C3' C   B  13      46.073 -12.684  20.632  0.00  0.00    +0.000 C 
ATOM   1556  C2' C   B  13      45.041 -13.086  21.672  0.00  0.00    +0.000 C 
ATOM   1557  C1' C   B  13      43.762 -12.519  21.054  0.00  0.00    +0.000 C 
BRANCH15571558
ATOM   1558  N1  C   B  13      43.039 -13.532  20.251  0.00  0.00    +0.000 N 
ATOM   1559  C2  C   B  13      42.237 -14.456  20.929  0.00  0.00    +0.000 A 
ATOM   1560  O2  C   B  13      42.152 -14.396  22.163  0.00  0.00    +0.000 OA
ATOM   1561  N3  C   B  13      41.566 -15.394  20.217  0.00  0.00    +0.000 NA
ATOM   1562  C4  C   B  13      41.679 -15.432  18.888  0.00  0.00    +0.000 A 
ATOM   1563  N4  C   B  13      41.001 -16.372  18.230  0.00  0.00    +0.000 N 
ATOM   1564  C5  C   B  13      42.490 -14.509  18.176  0.00  0.00    +0.000 A 
ATOM   1565  C6  C   B  13      43.148 -13.584  18.891  0.00  0.00    +0.000 A 
ATOM   1566  H   C   B  13      41.062 -16.428  17.249  0.00  0.00    +0.000 HD
ATOM   1567  H   C   B  13      40.439 -17.011  18.725  0.00  0.00    +0.000 HD
ENDBRANCH15571558
BRANCH15561568
ATOM   1568  O2' C   B  13      45.275 -12.428  22.905  0.00  0.00    +0.000 OA
ATOM   1569  H   C   B  13      45.290 -11.469  22.762  0.00  0.00    +0.000 HD
ENDBRANCH15561568
BRANCH15531570
ATOM   1570  C5' C   B  13      46.050 -10.838  18.846  0.00  0.00    +0.000 C 
BRANCH15701571
ATOM   1571  O5' C   B  13      45.707 -11.751  17.816  0.00  0.00    +0.000 OA
BRANCH15711572
ATOM   1572  P   C   B  13      45.851 -11.341  16.285  0.00  0.00    +0.000 P 
ATOM   1573  OP2 C   B  13      45.360 -12.471  15.454  0.00  0.00    +0.000 OA
BRANCH15721574
ATOM   1574  OP1 C   B  13      47.217 -10.809  16.070  0.00  0.00    +0.000 OA
ATOM   1575  H   C   B  13      47.322 -10.554  15.140  0.00  0.00    +0.000 HD
ENDBRANCH15721574
BRANCH15721576
ATOM   1576  O3' U   B  12      44.827 -10.124  16.136  0.00  0.00    +0.000 OA
BRANCH15761579
ATOM   1577  C4' U   B  12      42.671  -9.366  15.262  0.00  0.00    +0.000 C 
ATOM   1578  O4' U   B  12      41.302  -9.496  15.734  0.00  0.00    +0.000 OA
ATOM   1579  C3' U   B  12      43.433 -10.382  16.090  0.00  0.00    +0.000 C 
ATOM   1580  C2' U   B  12      42.752 -10.285  17.446  0.00  0.00    +0.000 C 
ATOM   1581  C1' U   B  12      41.293 -10.070  17.026  0.00  0.00    +0.000 C 
BRANCH15811582
ATOM   1582  N1  U   B  12      40.546 -11.347  16.970  0.00  0.00    +0.000 N 
ATOM   1583  C2  U   B  12      40.061 -11.846  18.167  0.00  0.00    +0.000 A 
ATOM   1584  O2  U   B  12      40.224 -11.284  19.236  0.00  0.00    +0.000 OA
ATOM   1585  N3  U   B  12      39.371 -13.033  18.068  0.00  0.00    +0.000 N 
ATOM   1586  C4  U   B  12      39.127 -13.753  16.916  0.00  0.00    +0.000 A 
ATOM   1587  O4  U   B  12      38.493 -14.807  16.986  0.00  0.00    +0.000 OA
ATOM   1588  C5  U   B  12      39.662 -13.175  15.725  0.00  0.00    +0.000 A 
ATOM   1589  C6  U   B  12      40.337 -12.019  15.790  0.00  0.00    +0.000 A 
ATOM   1590  H   U   B  12      39.015 -13.407  18.906  0.00  0.00    +0.000 HD
ENDBRANCH15811582
BRANCH15801591
ATOM   1591  O2' U   B  12      43.188  -9.138  18.155  0.00  0.00    +0.000 OA
ATOM   1592  H   U   B  12      43.037  -8.347  17.615  0.00  0.00    +0.000 HD
ENDBRANCH15801591
BRANCH15771593
ATOM   1593  C5' U   B  12      42.713  -9.562  13.767  0.00  0.00    +0.000 C 
BRANCH15931594
ATOM   1594  O5' U   B  12      42.310 -10.868  13.391  0.00  0.00    +0.000 OA
BRANCH15941595
ATOM   1595  P   U   B  12      42.023 -11.230  11.870  0.00  0.00    +0.000 P 
ATOM   1596  OP1 U   B  12      43.204 -10.831  11.063  0.00  0.00    +0.000 OA
BRANCH15951597
ATOM   1597  OP2 U   B  12      41.531 -12.632  11.809  0.00  0.00    +0.000 OA
ATOM   1598  H   U   B  12      41.350 -12.871  10.887  0.00  0.00    +0.000 HD
ENDBRANCH15951597
BRANCH15951599
ATOM   1599  O3' U   B  11      40.815 -10.262  11.486  0.00  0.00    +0.000 OA
BRANCH15991602
ATOM   1600  C4' U   B  11      38.429 -10.149  10.945  0.00  0.00    +0.000 C 
ATOM   1601  O4' U   B  11      37.229 -10.042  11.754  0.00  0.00    +0.000 OA
ATOM   1602  C3' U   B  11      39.501 -10.560  11.936  0.00  0.00    +0.000 C 
ATOM   1603  C2' U   B  11      39.107  -9.802  13.193  0.00  0.00    +0.000 C 
ATOM   1604  C1' U   B  11      37.580  -9.875  13.113  0.00  0.00    +0.000 C 
BRANCH16041605
ATOM   1605  N1  U   B  11      37.044 -11.025  13.877  0.00  0.00    +0.000 N 
ATOM   1606  C2  U   B  11      36.940 -10.885  15.249  0.00  0.00    +0.000 A 
ATOM   1607  O2  U   B  11      37.269  -9.872  15.841  0.00  0.00    +0.000 OA
ATOM   1608  N3  U   B  11      36.430 -11.979  15.909  0.00  0.00    +0.000 N 
ATOM   1609  C4  U   B  11      36.026 -13.173  15.348  0.00  0.00    +0.000 A 
ATOM   1610  O4  U   B  11      35.591 -14.067  16.074  0.00  0.00    +0.000 OA
ATOM   1611  C5  U   B  11      36.165 -13.241  13.930  0.00  0.00    +0.000 A 
ATOM   1612  C6  U   B  11      36.656 -12.190  13.258  0.00  0.00    +0.000 A 
ATOM   1613  H   U   B  11      36.344 -11.902  16.887  0.00  0.00    +0.000 HD
ENDBRANCH16041605
BRANCH16031614
ATOM   1614  O2' U   B  11      39.494  -8.442  13.111  0.00  0.00    +0.000 OA
ATOM   1615  H   U   B  11      39.112  -8.045  12.313  0.00  0.00    +0.000 HD
ENDBRANCH16031614
BRANCH16001616
ATOM   1616  C5' U   B  11      38.189 -11.107   9.806  0.00  0.00    +0.000 C 
BRANCH16161617
ATOM   1617  O5' U   B  11      37.991 -12.437  10.270  0.00  0.00    +0.000 OA
BRANCH16171618
ATOM   1618  P   U   B  11      37.620 -13.612   9.266  0.00  0.00    +0.000 P 
ATOM   1619  OP1 U   B  11      38.618 -13.610   8.168  0.00  0.00    +0.000 OA
BRANCH16181620
ATOM   1620  OP2 U   B  11      37.392 -14.850  10.053  0.00  0.00    +0.000 OA
ATOM   1621  H   U   B  11      37.164 -15.577   9.453  0.00  0.00    +0.000 HD
ENDBRANCH16181620
BRANCH16181622
ATOM   1622  O3' U   B  10      36.234 -13.144   8.674  0.00  0.00    +0.000 OA
BRANCH16221625
ATOM   1623  C4' U   B  10      33.848 -13.675   8.640  0.00  0.00    +0.000 C 
ATOM   1624  O4' U   B  10      32.714 -13.211   9.413  0.00  0.00    +0.000 OA
ATOM   1625  C3' U   B  10      35.051 -13.253   9.454  0.00  0.00    +0.000 C 
ATOM   1626  C2' U   B  10      34.605 -11.933  10.058  0.00  0.00    +0.000 C 
ATOM   1627  C1' U   B  10      33.127 -12.217  10.325  0.00  0.00    +0.000 C 
BRANCH16271628
ATOM   1628  N1  U   B  10      32.902 -12.726  11.696  0.00  0.00    +0.000 N 
ATOM   1629  C2  U   B  10      33.007 -11.842  12.751  0.00  0.00    +0.000 A 
ATOM   1630  O2  U   B  10      33.285 -10.666  12.611  0.00  0.00    +0.000 OA
ATOM   1631  N3  U   B  10      32.781 -12.387  13.995  0.00  0.00    +0.000 N 
ATOM   1632  C4  U   B  10      32.464 -13.699  14.281  0.00  0.00    +0.000 A 
ATOM   1633  O4  U   B  10      32.292 -14.036  15.453  0.00  0.00    +0.000 OA
ATOM   1634  C5  U   B  10      32.367 -14.554  13.139  0.00  0.00    +0.000 A 
ATOM   1635  C6  U   B  10      32.582 -14.050  11.914  0.00  0.00    +0.000 A 
ATOM   1636  H   U   B  10      32.853 -11.775  14.763  0.00  0.00    +0.000 HD
ENDBRANCH16271628
BRANCH16261637
ATOM   1637  O2' U   B  10      34.701 -10.880   9.117  0.00  0.00    +0.000 OA
ATOM   1638  H   U   B  10      34.188 -11.106   8.325  0.00  0.00    +0.000 HD
ENDBRANCH16261637
BRANCH16231639
ATOM   1639  C5' U   B  10      33.722 -15.157   8.401  0.00  0.00    +0.000 C 
BRANCH16391640
ATOM   1640  O5' U   B  10      33.765 -15.880   9.631  0.00  0.00    +0.000 OA
BRANCH16401641
ATOM   1641  P   U   B  10      34.007 -17.465   9.658  0.00  0.00    +0.000 P 
ATOM   1642  OP1 U   B  10      35.352 -17.740   9.111  0.00  0.00    +0.000 OA
BRANCH16411643
ATOM   1643  OP2 U   B  10      33.649 -17.953  11.019  0.00  0.00    +0.000 OA
ATOM   1644  H   U   B  10      33.786 -18.912  11.065  0.00  0.00    +0.000 HD
ENDBRANCH16411643
BRANCH16411645
ATOM   1645  O3' A   B   9      32.999 -18.001   8.655  0.00  0.00    +0.000 OA
BRANCH16451648
ATOM   1646  C4' A   B   9      33.524 -18.586   6.337  0.00  0.00    +0.000 C 
ATOM   1647  O4' A   B   9      33.132 -19.674   5.484  0.00  0.00    +0.000 OA
ATOM   1648  C3' A   B   9      33.286 -19.089   7.760  0.00  0.00    +0.000 C 
ATOM   1649  C2' A   B   9      32.102 -20.029   7.602  0.00  0.00    +0.000 C 
ATOM   1650  C1' A   B   9      32.299 -20.572   6.190  0.00  0.00    +0.000 C 
BRANCH16501651
ATOM   1651  N9  A   B   9      32.914 -21.917   6.118  0.00  0.00    +0.000 N 
ATOM   1652  C8  A   B   9      33.035 -22.614   4.943  0.00  0.00    +0.000 A 
ATOM   1653  N7  A   B   9      33.623 -23.781   5.077  0.00  0.00    +0.000 NA
ATOM   1654  C5  A   B   9      33.898 -23.862   6.428  0.00  0.00    +0.000 A 
ATOM   1655  C6  A   B   9      34.514 -24.866   7.190  0.00  0.00    +0.000 A 
ATOM   1656  N6  A   B   9      34.969 -26.011   6.667  0.00  0.00    +0.000 N 
ATOM   1657  N1  A   B   9      34.648 -24.664   8.514  0.00  0.00    +0.000 NA
ATOM   1658  C2  A   B   9      34.185 -23.514   9.022  0.00  0.00    +0.000 A 
ATOM   1659  N3  A   B   9      33.587 -22.501   8.401  0.00  0.00    +0.000 NA
ATOM   1660  C4  A   B   9      33.473 -22.728   7.093  0.00  0.00    +0.000 A 
ATOM   1661  H   A   B   9      34.882 -26.180   5.701  0.00  0.00    +0.000 HD
ATOM   1662  H   A   B   9      35.391 -26.684   7.248  0.00  0.00    +0.000 HD
ENDBRANCH16501651
BRANCH16491663
ATOM   1663  O2' A   B   9      30.875 -19.295   7.610  0.00  0.00    +0.000 OA
ATOM   1664  H   A   B   9      30.897 -18.620   6.913  0.00  0.00    +0.000 HD
ENDBRANCH16491663
BRANCH16461665
ATOM   1665  C5' A   B   9      34.958 -18.205   6.013  0.00  0.00    +0.000 C 
BRANCH16651666
ATOM   1666  O5' A   B   9      35.552 -19.200   5.192  0.00  0.00    +0.000 OA
BRANCH16661667
ATOM   1667  P   A   B   9      35.384 -19.118   3.601  0.00  0.00    +0.000 P 
ATOM   1668  OP2 A   B   9      35.343 -20.493   3.075  0.00  0.00    +0.000 OA
BRANCH16671669
ATOM   1669  OP1 A   B   9      36.415 -18.172   3.095  0.00  0.00    +0.000 OA
ATOM   1670  H   A   B   9      36.341 -18.099   2.131  0.00  0.00    +0.000 HD
ENDBRANCH16671669
BRANCH16671671
ATOM   1671  O3' U   B   8      33.956 -18.512   3.444  0.00  0.00    +0.000 OA
BRANCH16711674
ATOM   1672  C4' U   B   8      34.482 -18.280   1.032  0.00  0.00    +0.000 C 
ATOM   1673  O4' U   B   8      34.095 -17.321   0.032  0.00  0.00    +0.000 OA
ATOM   1674  C3' U   B   8      33.452 -18.155   2.155  0.00  0.00    +0.000 C 
ATOM   1675  C2' U   B   8      33.036 -16.692   2.073  0.00  0.00    +0.000 C 
ATOM   1676  C1' U   B   8      33.205 -16.375   0.579  0.00  0.00    +0.000 C 
BRANCH16761677
ATOM   1677  N1  U   B   8      31.939 -16.456  -0.185  0.00  0.00    +0.000 N 
ATOM   1678  C2  U   B   8      31.489 -15.298  -0.776  0.00  0.00    +0.000 A 
ATOM   1679  O2  U   B   8      32.091 -14.240  -0.700  0.00  0.00    +0.000 OA
ATOM   1680  N3  U   B   8      30.302 -15.429  -1.466  0.00  0.00    +0.000 N 
ATOM   1681  C4  U   B   8      29.541 -16.574  -1.623  0.00  0.00    +0.000 A 
ATOM   1682  O4  U   B   8      28.501 -16.527  -2.274  0.00  0.00    +0.000 OA
ATOM   1683  C5  U   B   8      30.076 -17.731  -0.972  0.00  0.00    +0.000 A 
ATOM   1684  C6  U   B   8      31.227 -17.634  -0.295  0.00  0.00    +0.000 A 
ATOM   1685  H   U   B   8      29.956 -14.614  -1.896  0.00  0.00    +0.000 HD
ENDBRANCH16761677
BRANCH16751686
ATOM   1686  O2' U   B   8      33.910 -15.847   2.802  0.00  0.00    +0.000 OA
ATOM   1687  H   U   B   8      34.816 -15.957   2.472  0.00  0.00    +0.000 HD
ENDBRANCH16751686
BRANCH16721688
ATOM   1688  C5' U   B   8      34.556 -19.633   0.363  0.00  0.00    +0.000 C 
BRANCH16881689
ATOM   1689  O5' U   B   8      35.845 -19.993   0.013  0.00  0.00    +0.000 OA
BRANCH16891690
ATOM   1690  P   U   B   8      36.489 -19.563  -1.383  0.00  0.00    +0.000 P 
ATOM   1691  OP1 U   B   8      36.081 -20.544  -2.419  0.00  0.00    +0.000 OA
BRANCH16901692
ATOM   1692  OP2 U   B   8      36.266 -18.113  -1.614  0.00  0.00    +0.000 OA
ATOM   1693  H   U   B   8      36.659 -17.857  -2.463  0.00  0.00    +0.000 HD
ENDBRANCH16901692
BRANCH16901694
ATOM   1694  O3' C   B   7      37.982 -19.839  -1.085  0.00  0.00    +0.000 OA
BRANCH16941697
ATOM   1695  C4' C   B   7      39.592 -18.085  -0.627  0.00  0.00    +0.000 C 
ATOM   1696  O4' C   B   7      40.573 -17.877   0.408  0.00  0.00    +0.000 OA
ATOM   1697  C3' C   B   7      38.633 -19.098  -0.046  0.00  0.00    +0.000 C 
ATOM   1698  C2' C   B   7      39.520 -19.975   0.824  0.00  0.00    +0.000 C 
ATOM   1699  C1' C   B   7      40.591 -18.976   1.291  0.00  0.00    +0.000 C 
BRANCH16991700
ATOM   1700  N1  C   B   7      40.374 -18.482   2.665  0.00  0.00    +0.000 N 
ATOM   1701  C2  C   B   7      40.348 -19.377   3.741  0.00  0.00    +0.000 A 
ATOM   1702  O2  C   B   7      40.485 -20.583   3.538  0.00  0.00    +0.000 OA
ATOM   1703  N3  C   B   7      40.175 -18.901   4.998  0.00  0.00    +0.000 NA
ATOM   1704  C4  C   B   7      40.037 -17.595   5.204  0.00  0.00    +0.000 A 
ATOM   1705  N4  C   B   7      39.867 -17.173   6.459  0.00  0.00    +0.000 N 
ATOM   1706  C5  C   B   7      40.072 -16.660   4.137  0.00  0.00    +0.000 A 
ATOM   1707  C6  C   B   7      40.246 -17.143   2.893  0.00  0.00    +0.000 A 
ATOM   1708  H   C   B   7      39.762 -16.212   6.645  0.00  0.00    +0.000 HD
ATOM   1709  H   C   B   7      39.847 -17.823   7.198  0.00  0.00    +0.000 HD
ENDBRANCH16991700
BRANCH16981710
ATOM   1710  O2' C   B   7      40.160 -20.979   0.043  0.00  0.00    +0.000 OA
ATOM   1711  H   C   B   7      40.658 -20.560  -0.676  0.00  0.00    +0.000 HD
ENDBRANCH16981710
BRANCH16951712
ATOM   1712  C5' C   B   7      38.982 -16.770  -1.036  0.00  0.00    +0.000 C 
BRANCH17121713
ATOM   1713  O5' C   B   7      39.969 -15.916  -1.602  0.00  0.00    +0.000 OA
BRANCH17131714
ATOM   1714  P   C   B   7      40.496 -16.198  -3.084  0.00  0.00    +0.000 P 
ATOM   1715  OP1 C   B   7      39.401 -16.820  -3.866  0.00  0.00    +0.000 OA
BRANCH17141716
ATOM   1716  OP2 C   B   7      41.128 -14.942  -3.567  0.00  0.00    +0.000 OA
ATOM   1717  H   C   B   7      41.462 -15.074  -4.468  0.00  0.00    +0.000 HD
ENDBRANCH17141716
BRANCH17141718
ATOM   1718  O3' A   B   6      41.615 -17.352  -2.920  0.00  0.00    +0.000 OA
BRANCH17181721
ATOM   1719  C4' A   B   6      43.867 -16.470  -2.565  0.00  0.00    +0.000 C 
ATOM   1720  O4' A   B   6      44.945 -16.833  -1.669  0.00  0.00    +0.000 OA
ATOM   1721  C3' A   B   6      42.645 -17.153  -1.965  0.00  0.00    +0.000 C 
ATOM   1722  C2' A   B   6      43.215 -18.445  -1.407  0.00  0.00    +0.000 C 
ATOM   1723  C1' A   B   6      44.586 -17.969  -0.917  0.00  0.00    +0.000 C 
BRANCH17231724
ATOM   1724  N9  A   B   6      44.560 -17.585   0.508  0.00  0.00    +0.000 N 
ATOM   1725  C8  A   B   6      44.728 -16.326   1.036  0.00  0.00    +0.000 A 
ATOM   1726  N7  A   B   6      44.651 -16.285   2.346  0.00  0.00    +0.000 NA
ATOM   1727  C5  A   B   6      44.420 -17.607   2.702  0.00  0.00    +0.000 A 
ATOM   1728  C6  A   B   6      44.246 -18.235   3.949  0.00  0.00    +0.000 A 
ATOM   1729  N6  A   B   6      44.274 -17.581   5.116  0.00  0.00    +0.000 N 
ATOM   1730  N1  A   B   6      44.036 -19.567   3.962  0.00  0.00    +0.000 NA
ATOM   1731  C2  A   B   6      44.006 -20.224   2.791  0.00  0.00    +0.000 A 
ATOM   1732  N3  A   B   6      44.158 -19.746   1.561  0.00  0.00    +0.000 NA
ATOM   1733  C4  A   B   6      44.364 -18.417   1.586  0.00  0.00    +0.000 A 
ATOM   1734  H   A   B   6      44.426 -16.608   5.132  0.00  0.00    +0.000 HD
ATOM   1735  H   A   B   6      44.143 -18.072   5.959  0.00  0.00    +0.000 HD
ENDBRANCH17231724
BRANCH17221736
ATOM   1736  O2' A   B   6      43.417 -19.403  -2.439  0.00  0.00    +0.000 OA
ATOM   1737  H   A   B   6      43.984 -19.022  -3.128  0.00  0.00    +0.000 HD
ENDBRANCH17221736
BRANCH17191738
ATOM   1738  C5' A   B   6      43.797 -14.975  -2.666  0.00  0.00    +0.000 C 
BRANCH17381739
ATOM   1739  O5' A   B   6      45.033 -14.445  -3.098  0.00  0.00    +0.000 OA
BRANCH17391740
ATOM   1740  P   A   B   6      45.657 -13.176  -2.386  0.00  0.00    +0.000 P 
ATOM   1741  OP1 A   B   6      45.406 -11.985  -3.243  0.00  0.00    +0.000 OA
BRANCH17401742
ATOM   1742  OP2 A   B   6      45.203 -13.170  -0.978  0.00  0.00    +0.000 OA
ATOM   1743  H   A   B   6      44.254 -12.973  -0.945  0.00  0.00    +0.000 HD
ENDBRANCH17401742
BRANCH17401744
ATOM   1744  O3' U   B   5      47.191 -13.496  -2.417  0.00  0.00    +0.000 OA
BRANCH17441747
ATOM   1745  C4' U   B   5      49.309 -13.628  -1.228  0.00  0.00    +0.000 C 
ATOM   1746  O4' U   B   5      49.922 -14.632  -0.385  0.00  0.00    +0.000 OA
ATOM   1747  C3' U   B   5      47.852 -14.036  -1.289  0.00  0.00    +0.000 C 
ATOM   1748  C2' U   B   5      47.932 -15.555  -1.294  0.00  0.00    +0.000 C 
ATOM   1749  C1' U   B   5      49.125 -15.797  -0.368  0.00  0.00    +0.000 C 
BRANCH17491750
ATOM   1750  N1  U   B   5      48.704 -16.064   1.024  0.00  0.00    +0.000 N 
ATOM   1751  C2  U   B   5      48.323 -17.355   1.346  0.00  0.00    +0.000 A 
ATOM   1752  O2  U   B   5      48.316 -18.267   0.535  0.00  0.00    +0.000 OA
ATOM   1753  N3  U   B   5      47.947 -17.542   2.655  0.00  0.00    +0.000 N 
ATOM   1754  C4  U   B   5      47.918 -16.592   3.657  0.00  0.00    +0.000 A 
ATOM   1755  O4  U   B   5      47.558 -16.915   4.790  0.00  0.00    +0.000 OA
ATOM   1756  C5  U   B   5      48.328 -15.286   3.247  0.00  0.00    +0.000 A 
ATOM   1757  C6  U   B   5      48.699 -15.075   1.975  0.00  0.00    +0.000 A 
ATOM   1758  H   U   B   5      47.668 -18.452   2.905  0.00  0.00    +0.000 HD
ENDBRANCH17491750
BRANCH17481759
ATOM   1759  O2' U   B   5      48.261 -16.046  -2.583  0.00  0.00    +0.000 OA
ATOM   1760  H   U   B   5      49.090 -15.641  -2.881  0.00  0.00    +0.000 HD
ENDBRANCH17481759
BRANCH17451761
ATOM   1761  C5' U   B   5      49.576 -12.253  -0.663  0.00  0.00    +0.000 C 
BRANCH17611762
ATOM   1762  O5' U   B   5      48.988 -12.097   0.611  0.00  0.00    +0.000 OA
BRANCH17621763
ATOM   1763  P   U   B   5      49.381 -10.875   1.543  0.00  0.00    +0.000 P 
ATOM   1764  OP1 U   B   5      49.095  -9.618   0.815  0.00  0.00    +0.000 OA
BRANCH17631765
ATOM   1765  OP2 U   B   5      48.778 -11.108   2.886  0.00  0.00    +0.000 OA
ATOM   1766  H   U   B   5      47.813 -11.026   2.826  0.00  0.00    +0.000 HD
ENDBRANCH17631765
BRANCH17631767
ATOM   1767  O3' A   B   4      50.973 -11.014   1.663  0.00  0.00    +0.000 OA
BRANCH17671770
ATOM   1768  C4' A   B   4      52.866 -11.603   3.094  0.00  0.00    +0.000 C 
ATOM   1769  O4' A   B   4      53.496 -12.861   3.434  0.00  0.00    +0.000 OA
ATOM   1770  C3' A   B   4      51.534 -12.015   2.494  0.00  0.00    +0.000 C 
ATOM   1771  C2' A   B   4      51.886 -13.292   1.752  0.00  0.00    +0.000 C 
ATOM   1772  C1' A   B   4      52.910 -13.913   2.695  0.00  0.00    +0.000 C 
BRANCH17721773
ATOM   1773  N9  A   B   4      52.284 -14.853   3.638  0.00  0.00    +0.000 N 
ATOM   1774  C8  A   B   4      51.925 -14.621   4.942  0.00  0.00    +0.000 A 
ATOM   1775  N7  A   B   4      51.387 -15.662   5.533  0.00  0.00    +0.000 NA
ATOM   1776  C5  A   B   4      51.395 -16.644   4.549  0.00  0.00    +0.000 A 
ATOM   1777  C6  A   B   4      50.966 -17.979   4.542  0.00  0.00    +0.000 A 
ATOM   1778  N6  A   B   4      50.411 -18.584   5.605  0.00  0.00    +0.000 N 
ATOM   1779  N1  A   B   4      51.114 -18.681   3.404  0.00  0.00    +0.000 NA
ATOM   1780  C2  A   B   4      51.666 -18.077   2.344  0.00  0.00    +0.000 A 
ATOM   1781  N3  A   B   4      52.112 -16.830   2.230  0.00  0.00    +0.000 NA
ATOM   1782  C4  A   B   4      51.943 -16.158   3.382  0.00  0.00    +0.000 A 
ATOM   1783  H   A   B   4      50.128 -19.525   5.544  0.00  0.00    +0.000 HD
ATOM   1784  H   A   B   4      50.287 -18.087   6.446  0.00  0.00    +0.000 HD
ENDBRANCH17721773
BRANCH17711785
ATOM   1785  O2' A   B   4      52.531 -13.005   0.518  0.00  0.00    +0.000 OA
ATOM   1786  H   A   B   4      53.313 -12.455   0.682  0.00  0.00    +0.000 HD
ENDBRANCH17711785
BRANCH17681787
ATOM   1787  C5' A   B   4      52.791 -10.728   4.317  0.00  0.00    +0.000 C 
BRANCH17871788
ATOM   1788  O5' A   B   4      52.047 -11.348   5.350  0.00  0.00    +0.000 OA
BRANCH17881789
ATOM   1789  P   A   B   4      52.166 -10.835   6.850  0.00  0.00    +0.000 P 
ATOM   1790  OP1 A   B   4      51.874  -9.381   6.865  0.00  0.00    +0.000 OA
BRANCH17891791
ATOM   1791  OP2 A   B   4      51.384 -11.757   7.717  0.00  0.00    +0.000 OA
ATOM   1792  H   A   B   4      50.438 -11.654   7.528  0.00  0.00    +0.000 HD
ENDBRANCH17891791
BRANCH17891793
ATOM   1793  O3' A   B   3      53.723 -11.024   7.180  0.00  0.00    +0.000 OA
BRANCH17931796
ATOM   1794  C4' A   B   3      55.393 -12.259   8.470  0.00  0.00    +0.000 C 
ATOM   1795  O4' A   B   3      56.073 -13.524   8.264  0.00  0.00    +0.000 OA
ATOM   1796  C3' A   B   3      54.228 -12.310   7.499  0.00  0.00    +0.000 C 
ATOM   1797  C2' A   B   3      54.823 -13.043   6.306  0.00  0.00    +0.000 C 
ATOM   1798  C1' A   B   3      55.733 -14.054   6.997  0.00  0.00    +0.000 C 
BRANCH17981799
ATOM   1799  N9  A   B   3      55.062 -15.348   7.197  0.00  0.00    +0.000 N 
ATOM   1800  C8  A   B   3      54.467 -15.823   8.338  0.00  0.00    +0.000 A 
ATOM   1801  N7  A   B   3      53.952 -17.022   8.205  0.00  0.00    +0.000 NA
ATOM   1802  C5  A   B   3      54.229 -17.358   6.886  0.00  0.00    +0.000 A 
ATOM   1803  C6  A   B   3      53.951 -18.504   6.122  0.00  0.00    +0.000 A 
ATOM   1804  N1  A   B   3      54.365 -18.516   4.841  0.00  0.00    +0.000 NA
ATOM   1805  C2  A   B   3      55.020 -17.450   4.361  0.00  0.00    +0.000 A 
ATOM   1806  N3  A   B   3      55.342 -16.322   4.981  0.00  0.00    +0.000 NA
ATOM   1807  C4  A   B   3      54.911 -16.339   6.257  0.00  0.00    +0.000 A 
BRANCH18031808
ATOM   1808  N6  A   B   3      53.295 -19.572   6.599  0.00  0.00    +0.000 N 
ATOM   1809  H   A   B   3      53.129 -20.348   6.016  0.00  0.00    +0.000 HD
ATOM   1810  H   A   B   3      52.980 -19.580   7.532  0.00  0.00    +0.000 HD
ENDBRANCH18031808
ENDBRANCH17981799
BRANCH17971811
ATOM   1811  O2' A   B   3      55.634 -12.171   5.526  0.00  0.00    +0.000 OA
ATOM   1812  H   A   B   3      56.319 -11.777   6.089  0.00  0.00    +0.000 HD
ENDBRANCH17971811
BRANCH17941813
ATOM   1813  C5' A   B   3      55.032 -12.107   9.925  0.00  0.00    +0.000 C 
BRANCH18131814
ATOM   1814  O5' A   B   3      54.161 -13.143  10.353  0.00  0.00    +0.000 OA
BRANCH18141815
ATOM   1815  P   A   B   3      53.948 -13.430  11.902  0.00  0.00    +0.000 P 
ATOM   1816  OP2 A   B   3      53.062 -14.611  12.037  0.00  0.00    +0.000 OA
BRANCH18151817
ATOM   1817  OP1 A   B   3      53.588 -12.153  12.564  0.00  0.00    +0.000 OA
ATOM   1818  H   A   B   3      52.700 -11.882  12.283  0.00  0.00    +0.000 HD
ENDBRANCH18151817
BRANCH18151819
ATOM   1819  O3' U   B   2      55.422 -13.841  12.393  0.00  0.00    +0.000 OA
BRANCH18191822
ATOM   1820  C4' U   B   2      56.771 -15.679  13.273  0.00  0.00    +0.000 C 
ATOM   1821  O4' U   B   2      57.567 -16.719  12.651  0.00  0.00    +0.000 OA
ATOM   1822  C3' U   B   2      55.910 -15.151  12.142  0.00  0.00    +0.000 C 
ATOM   1823  C2' U   B   2      56.844 -15.236  10.944  0.00  0.00    +0.000 C 
ATOM   1824  C1' U   B   2      57.606 -16.523  11.252  0.00  0.00    +0.000 C 
BRANCH18241825
ATOM   1825  N1  U   B   2      56.991 -17.697  10.595  0.00  0.00    +0.000 N 
ATOM   1826  C2  U   B   2      57.268 -17.900   9.255  0.00  0.00    +0.000 A 
ATOM   1827  O2  U   B   2      57.987 -17.159   8.604  0.00  0.00    +0.000 OA
ATOM   1828  N3  U   B   2      56.674 -19.007   8.699  0.00  0.00    +0.000 N 
ATOM   1829  C4  U   B   2      55.846 -19.914   9.333  0.00  0.00    +0.000 A 
ATOM   1830  O4  U   B   2      55.387 -20.861   8.698  0.00  0.00    +0.000 OA
ATOM   1831  C5  U   B   2      55.610 -19.636  10.713  0.00  0.00    +0.000 A 
ATOM   1832  C6  U   B   2      56.178 -18.564  11.283  0.00  0.00    +0.000 A 
ATOM   1833  H   U   B   2      56.858 -19.172   7.746  0.00  0.00    +0.000 HD
ENDBRANCH18241825
BRANCH18231834
ATOM   1834  O2' U   B   2      57.771 -14.161  10.945  0.00  0.00    +0.000 OA
ATOM   1835  H   U   B   2      58.256 -14.153  11.785  0.00  0.00    +0.000 HD
ENDBRANCH18231834
BRANCH18201836
ATOM   1836  C5' U   B   2      56.023 -16.246  14.453  0.00  0.00    +0.000 C 
BRANCH18361837
ATOM   1837  O5' U   B   2      55.045 -17.193  14.040  0.00  0.00    +0.000 OA
BRANCH18371838
ATOM   1838  P   U   B   2      54.191 -18.003  15.105  0.00  0.00    +0.000 P 
ATOM   1839  OP2 U   B   2      53.289 -18.930  14.373  0.00  0.00    +0.000 OA
BRANCH18381840
ATOM   1840  OP1 U   B   2      53.624 -17.041  16.081  0.00  0.00    +0.000 OA
ATOM   1841  H   U   B   2      52.939 -16.507  15.648  0.00  0.00    +0.000 HD
ENDBRANCH18381840
BRANCH18381842
ATOM   1842  O3' C   B   1      55.345 -18.880  15.894  0.00  0.00    +0.000 OA
BRANCH18421845
ATOM   1843  C4' C   B   1      56.092 -21.170  16.250  0.00  0.00    +0.000 C 
ATOM   1844  O4' C   B   1      57.100 -22.002  15.625  0.00  0.00    +0.000 OA
ATOM   1845  C3' C   B   1      55.887 -20.037  15.269  0.00  0.00    +0.000 C 
ATOM   1846  C2' C   B   1      57.271 -19.827  14.707  0.00  0.00    +0.000 C 
ATOM   1847  C1' C   B   1      57.796 -21.255  14.651  0.00  0.00    +0.000 C 
BRANCH18471848
ATOM   1848  N1  C   B   1      57.588 -21.894  13.340  0.00  0.00    +0.000 N 
ATOM   1849  C2  C   B   1      58.406 -21.532  12.276  0.00  0.00    +0.000 A 
ATOM   1850  O2  C   B   1      59.287 -20.674  12.450  0.00  0.00    +0.000 OA
ATOM   1851  N3  C   B   1      58.228 -22.121  11.069  0.00  0.00    +0.000 NA
ATOM   1852  C4  C   B   1      57.274 -23.036  10.909  0.00  0.00    +0.000 A 
ATOM   1853  N4  C   B   1      57.140 -23.593   9.709  0.00  0.00    +0.000 N 
ATOM   1854  C5  C   B   1      56.425 -23.432  11.978  0.00  0.00    +0.000 A 
ATOM   1855  C6  C   B   1      56.617 -22.838  13.164  0.00  0.00    +0.000 A 
ATOM   1856  H   C   B   1      57.729 -23.317   8.970  0.00  0.00    +0.000 HD
ATOM   1857  H   C   B   1      56.452 -24.281   9.560  0.00  0.00    +0.000 HD
ENDBRANCH18471848
BRANCH18461858
ATOM   1858  O2' C   B   1      58.065 -19.084  15.600  0.00  0.00    +0.000 OA
ATOM   1859  H   C   B   1      58.085 -19.529  16.462  0.00  0.00    +0.000 HD
ENDBRANCH18461858
BRANCH18431860
ATOM   1860  C5' C   B   1      54.874 -22.003  16.532  0.00  0.00    +0.000 C 
BRANCH18601861
ATOM   1861  O5' C   B   1      54.343 -22.540  15.336  0.00  0.00    +0.000 OA
BRANCH18611862
ATOM   1862  P   C   B   1      52.865 -23.130  15.211  0.00  0.00    +0.000 P 
ATOM   1863  OP2 C   B   1      52.942 -24.116  14.074  0.00  0.00    +0.000 OA
BRANCH18621864
ATOM   1864  OP1 C   B   1      51.939 -21.999  15.071  0.00  0.00    +0.000 OA
ATOM   1865  H   C   B   1      52.296 -21.367  14.428  0.00  0.00    +0.000 HD
ENDBRANCH18621864
BRANCH18621866
ATOM   1866  OP3 C   B   1      52.320 -23.547  15.835  0.00  0.00    +0.000 OA
ATOM   1867  H   C   B   1      51.475 -23.782  15.421  0.00  0.00    +0.000 HD
ENDBRANCH18621866
ENDBRANCH18611862
ENDBRANCH18601861
ENDBRANCH18431860
ENDBRANCH18421845
ENDBRANCH18381842
ENDBRANCH18371838
ENDBRANCH18361837
ENDBRANCH18201836
ENDBRANCH18191822
ENDBRANCH18151819
ENDBRANCH18141815
ENDBRANCH18131814
ENDBRANCH17941813
ENDBRANCH17931796
ENDBRANCH17891793
ENDBRANCH17881789
ENDBRANCH17871788
ENDBRANCH17681787
ENDBRANCH17671770
ENDBRANCH17631767
ENDBRANCH17621763
ENDBRANCH17611762
ENDBRANCH17451761
ENDBRANCH17441747
ENDBRANCH17401744
ENDBRANCH17391740
ENDBRANCH17381739
ENDBRANCH17191738
ENDBRANCH17181721
ENDBRANCH17141718
ENDBRANCH17131714
ENDBRANCH17121713
ENDBRANCH16951712
ENDBRANCH16941697
ENDBRANCH16901694
ENDBRANCH16891690
ENDBRANCH16881689
ENDBRANCH16721688
ENDBRANCH16711674
ENDBRANCH16671671
ENDBRANCH16661667
ENDBRANCH16651666
ENDBRANCH16461665
ENDBRANCH16451648
ENDBRANCH16411645
ENDBRANCH16401641
ENDBRANCH16391640
ENDBRANCH16231639
ENDBRANCH16221625
ENDBRANCH16181622
ENDBRANCH16171618
ENDBRANCH16161617
ENDBRANCH16001616
ENDBRANCH15991602
ENDBRANCH15951599
ENDBRANCH15941595
ENDBRANCH15931594
ENDBRANCH15771593
ENDBRANCH15761579
ENDBRANCH15721576
ENDBRANCH15711572
ENDBRANCH15701571
ENDBRANCH15531570
ENDBRANCH15521555
ENDBRANCH15481552
ENDBRANCH15471548
ENDBRANCH15461547
ENDBRANCH15271546
ENDBRANCH15261529
ENDBRANCH15221526
ENDBRANCH15211522
ENDBRANCH15201521
ENDBRANCH15041520
ENDBRANCH15031506
ENDBRANCH14991503
ENDBRANCH14981499
ENDBRANCH14971498
ENDBRANCH14801497
ENDBRANCH14791482
ENDBRANCH14751479
ENDBRANCH14741475
ENDBRANCH14731474
ENDBRANCH14561473
ENDBRANCH14551458
ENDBRANCH14511455
ENDBRANCH14501451
ENDBRANCH14491450
ENDBRANCH14281449
ENDBRANCH14271430
ENDBRANCH14231427
ENDBRANCH14221423
ENDBRANCH14211422
ENDBRANCH14021421
ENDBRANCH14011404
ENDBRANCH13971401
ENDBRANCH13961397
ENDBRANCH13951396
ENDBRANCH13761395
ENDBRANCH13751378
ENDBRANCH13711375
ENDBRANCH13701371
ENDBRANCH13691370
ENDBRANCH13501369
ENDBRANCH13491352
ENDBRANCH13451349
ENDBRANCH13441345
ENDBRANCH13431344
ENDBRANCH13261343
ENDBRANCH13251328
ENDBRANCH13211325
ENDBRANCH13201321
ENDBRANCH13191320
ENDBRANCH13031319
ENDBRANCH13021305
ENDBRANCH12981302
ENDBRANCH12971298
ENDBRANCH12961297
ENDBRANCH12801296
ENDBRANCH12791282
ENDBRANCH12751279
ENDBRANCH12741275
ENDBRANCH12731274
ENDBRANCH12571273
ENDBRANCH12561259
ENDBRANCH12521256
ENDBRANCH12511252
ENDBRANCH12501251
ENDBRANCH12341250
ENDBRANCH12331236
ENDBRANCH12291233
ENDBRANCH12281229
ENDBRANCH12271228
ENDBRANCH12111227
ENDBRANCH12101213
ENDBRANCH12061210
ENDBRANCH12051206
ENDBRANCH12041205
ENDBRANCH11881204
ENDBRANCH11871190
ENDBRANCH11831187
ENDBRANCH11821183
ENDBRANCH11811182
ENDBRANCH11621181
ENDBRANCH11611164
ENDBRANCH11571161
ENDBRANCH11561157
ENDBRANCH11551156
ENDBRANCH11361155
ENDBRANCH11351138
ENDBRANCH11311135
ENDBRANCH11301131
ENDBRANCH11291130
ENDBRANCH11101129
ENDBRANCH11091112
ENDBRANCH11051109
ENDBRANCH11041105
ENDBRANCH11031104
ENDBRANCH10841103
ENDBRANCH10831086
ENDBRANCH10791083
ENDBRANCH10781079
ENDBRANCH10771078
ENDBRANCH10611077
ENDBRANCH10601063
ENDBRANCH10561060
ENDBRANCH10551056
ENDBRANCH10541055
ENDBRANCH10351054
ENDBRANCH10341037
ENDBRANCH10301034
ENDBRANCH10291030
ENDBRANCH10281029
ENDBRANCH10091028
ENDBRANCH10081011
ENDBRANCH10041008
ENDBRANCH10031004
ENDBRANCH10021003
ENDBRANCH 9861002
ENDBRANCH 985 988
ENDBRANCH 981 985
ENDBRANCH 980 981
ENDBRANCH 979 980
ENDBRANCH 960 979
ENDBRANCH 959 962
ENDBRANCH 955 959
ENDBRANCH 954 955
ENDBRANCH 953 954
ENDBRANCH 937 953
ENDBRANCH 936 939
ENDBRANCH   1 936
TORSDOF 610
