REMARK  Name = /storage/kiran-stuff/aaRS/phase2/energy_scoring/vina_182jobs/modern_prours_thr_THR/ligand.h.pdb
REMARK  6 active torsions:
REMARK  status: ('A' for Active; 'I' for Inactive)
REMARK    1  A    between atoms: N_1  and  CA_2
REMARK    2  A    between atoms: CA_2  and  C_3
REMARK    3  A    between atoms: CA_2  and  CB_5
REMARK    4  A    between atoms: C_3  and  O_4
REMARK    5  A    between atoms: CB_5  and  OG1_6
REMARK    6  A    between atoms: CB_5  and  CG2_7
REMARK                            x       y       z     vdW  Elec       q    Type
REMARK                         _______ _______ _______ _____ _____    ______ ____
ROOT
ATOM      1  CA  THR C   1       0.415 -10.144 -18.495  0.00  0.00    +0.000 C 
ENDROOT
BRANCH   1   2
ATOM      2  N   THR C   1      -0.699 -10.866 -17.873  0.00  0.00    +0.000 NA
ATOM      3  H   THR C   1      -1.456 -10.971 -18.549  0.00  0.00    +0.000 HD
ATOM      4  H   THR C   1      -1.035 -10.342 -17.065  0.00  0.00    +0.000 HD
ENDBRANCH   1   2
BRANCH   1   5
ATOM      5  C   THR C   1       1.552  -9.973 -17.519  0.00  0.00    +0.000 C 
ATOM      6  OXT THR C   1       2.678 -10.399 -17.837  0.00  0.00    +0.000 OA
BRANCH   5   7
ATOM      7  O   THR C   1       1.372  -9.454 -16.422  0.00  0.00    +0.000 OA
ATOM      8  H   THR C   1       0.522  -9.135 -16.188  0.00  0.00    +0.000 HD
ENDBRANCH   5   7
ENDBRANCH   1   5
BRANCH   1   9
ATOM      9  CB  THR C   1      -0.074  -8.802 -19.002  0.00  0.00    +0.000 C 
ATOM     10  CG2 THR C   1       0.809  -8.310 -20.102  0.00  0.00    +0.000 C 
BRANCH   9  11
ATOM     11  OG1 THR C   1      -0.179  -7.863 -17.962  0.00  0.00    +0.000 OA
ATOM     12  H   THR C   1       0.696  -7.713 -17.572  0.00  0.00    +0.000 HD
ENDBRANCH   9  11
ENDBRANCH   1   9
TORSDOF 5
