REMARK  Name = /storage/kiran-stuff/aaRS/phase2/energy_scoring/vina_182jobs/COMPETITION_anc_thrrs_THR_vs_ILE_ILE/ligand.h.pdb
REMARK  6 active torsions:
REMARK  status: ('A' for Active; 'I' for Inactive)
REMARK    1  A    between atoms: N_1  and  CA_2
REMARK    2  A    between atoms: CA_2  and  C_3
REMARK    3  A    between atoms: CA_2  and  CB_5
REMARK    4  A    between atoms: C_3  and  O_4
REMARK    5  A    between atoms: CB_5  and  OG1_6
REMARK    6  A    between atoms: CB_5  and  CG2_7
REMARK                            x       y       z     vdW  Elec       q    Type
REMARK                         _______ _______ _______ _____ _____    ______ ____
ROOT
ATOM      1  CA  THR B   1      -3.585   6.975  -2.094  0.00  0.00    +0.000 C 
ENDROOT
BRANCH   1   2
ATOM      2  N   THR B   1      -3.218   8.188  -2.845  0.00  0.00    +0.000 NA
ATOM      3  H   THR B   1      -3.582   8.123  -3.796  0.00  0.00    +0.000 HD
ATOM      4  H   THR B   1      -2.202   8.274  -2.875  0.00  0.00    +0.000 HD
ENDBRANCH   1   2
BRANCH   1   5
ATOM      5  C   THR B   1      -5.112   6.824  -2.146  0.00  0.00    +0.000 C 
ATOM      6  OXT THR B   1      -5.600   5.876  -2.706  0.00  0.00    +0.000 OA
BRANCH   5   7
ATOM      7  O   THR B   1      -5.776   7.775  -1.773  0.00  0.00    +0.000 OA
ATOM      8  H   THR B   1      -5.361   8.495  -1.340  0.00  0.00    +0.000 HD
ENDBRANCH   5   7
ENDBRANCH   1   5
BRANCH   1   9
ATOM      9  CB  THR B   1      -3.048   7.070  -0.692  0.00  0.00    +0.000 C 
ATOM     10  CG2 THR B   1      -3.553   5.979   0.201  0.00  0.00    +0.000 C 
BRANCH   9  11
ATOM     11  OG1 THR B   1      -1.612   7.029  -0.772  0.00  0.00    +0.000 OA
ATOM     12  H   THR B   1      -1.335   6.190  -1.172  0.00  0.00    +0.000 HD
ENDBRANCH   9  11
ENDBRANCH   1   9
TORSDOF 5
