REMARK  Name = /storage/kiran-stuff/aaRS/phase2/energy_scoring/vina_182jobs/anc_thrrs_cat_ASP_ASP/ligand.h.pdb
REMARK  6 active torsions:
REMARK  status: ('A' for Active; 'I' for Inactive)
REMARK    1  A    between atoms: N_1  and  CA_2
REMARK    2  A    between atoms: CA_2  and  C_3
REMARK    3  A    between atoms: CA_2  and  CB_5
REMARK    4  A    between atoms: C_3  and  O_4
REMARK    5  A    between atoms: CB_5  and  CG_6
REMARK    6  A    between atoms: CG_6  and  OD2_8
REMARK                            x       y       z     vdW  Elec       q    Type
REMARK                         _______ _______ _______ _____ _____    ______ ____
ROOT
ATOM      1  CA  ASP B   1       2.125   1.281  -4.496  0.00  0.00    +0.000 C 
ENDROOT
BRANCH   1   2
ATOM      2  N   ASP B   1       1.110   0.426  -3.903  0.00  0.00    +0.000 NA
ATOM      3  H   ASP B   1       0.218   0.921  -3.882  0.00  0.00    +0.000 HD
ATOM      4  H   ASP B   1       1.385   0.181  -2.951  0.00  0.00    +0.000 HD
ENDBRANCH   1   2
BRANCH   1   5
ATOM      5  C   ASP B   1       1.757   1.694  -5.903  0.00  0.00    +0.000 C 
ATOM      6  OXT ASP B   1       0.727   1.254  -6.437  0.00  0.00    +0.000 OA
BRANCH   5   7
ATOM      7  O   ASP B   1       2.500   2.455  -6.533  0.00  0.00    +0.000 OA
ATOM      8  H   ASP B   1       3.278   2.789  -6.131  0.00  0.00    +0.000 HD
ENDBRANCH   5   7
ENDBRANCH   1   5
BRANCH   1   9
ATOM      9  CB  ASP B   1       3.449   0.545  -4.525  0.00  0.00    +0.000 C 
BRANCH   9  10
ATOM     10  CG  ASP B   1       3.820  -0.062  -3.200  0.00  0.00    +0.000 C 
ATOM     11  OD1 ASP B   1       4.237  -1.238  -3.180  0.00  0.00    +0.000 OA
BRANCH  10  12
ATOM     12  OD2 ASP B   1       3.698   0.633  -2.201  0.00  0.00    +0.000 OA
ATOM     13  H   ASP B   1       3.379   1.511  -2.277  0.00  0.00    +0.000 HD
ENDBRANCH  10  12
ENDBRANCH   9  10
ENDBRANCH   1   9
TORSDOF 6
