REMARK  Name = /storage/kiran-stuff/aaRS/phase2/energy_scoring/vina_182jobs/anc_thrrs_cat_zn_MET_MET/ligand.h.pdb
REMARK  7 active torsions:
REMARK  status: ('A' for Active; 'I' for Inactive)
REMARK    1  A    between atoms: N_1  and  CA_2
REMARK    2  A    between atoms: CA_2  and  C_3
REMARK    3  A    between atoms: CA_2  and  CB_5
REMARK    4  A    between atoms: C_3  and  O_4
REMARK    5  A    between atoms: CB_5  and  CG_6
REMARK    6  A    between atoms: CG_6  and  SD_7
REMARK    7  A    between atoms: SD_7  and  CE_8
REMARK                            x       y       z     vdW  Elec       q    Type
REMARK                         _______ _______ _______ _____ _____    ______ ____
ROOT
ATOM      1  CA  MET B   1      -4.279  -0.454   8.075  0.00  0.00    +0.000 C 
ENDROOT
BRANCH   1   2
ATOM      2  N   MET B   1      -5.528   0.196   8.417  0.00  0.00    +0.000 NA
ATOM      3  H   MET B   1      -6.305  -0.429   8.204  0.00  0.00    +0.000 HD
ATOM      4  H   MET B   1      -5.624   1.054   7.874  0.00  0.00    +0.000 HD
ENDBRANCH   1   2
BRANCH   1   5
ATOM      5  C   MET B   1      -3.106   0.443   8.376  0.00  0.00    +0.000 C 
ATOM      6  OXT MET B   1      -2.528   1.017   7.469  0.00  0.00    +0.000 OA
BRANCH   5   7
ATOM      7  O   MET B   1      -2.708   0.579   9.531  0.00  0.00    +0.000 OA
ATOM      8  H   MET B   1      -3.148   0.141  10.232  0.00  0.00    +0.000 HD
ENDBRANCH   5   7
ENDBRANCH   1   5
BRANCH   1   9
ATOM      9  CB  MET B   1      -4.286  -0.861   6.614  0.00  0.00    +0.000 C 
BRANCH   9  10
ATOM     10  CG  MET B   1      -4.360  -2.365   6.438  0.00  0.00    +0.000 C 
BRANCH  10  11
ATOM     11  SD  MET B   1      -6.029  -2.988   6.451  0.00  0.00    +0.000 S 
ATOM     12  CE  MET B   1      -5.761  -4.647   6.975  0.00  0.00    +0.000 C 
ENDBRANCH  10  11
ENDBRANCH   9  10
ENDBRANCH   1   9
TORSDOF 6
