REMARK  Name = /storage/kiran-stuff/aaRS/phase2/energy_scoring/vina_182jobs/anc_thrrs_cat_zn_MET_MET/ligand.h.pdb
REMARK  7 active torsions:
REMARK  status: ('A' for Active; 'I' for Inactive)
REMARK    1  A    between atoms: N_1  and  CA_2
REMARK    2  A    between atoms: CA_2  and  C_3
REMARK    3  A    between atoms: CA_2  and  CB_5
REMARK    4  A    between atoms: C_3  and  O_4
REMARK    5  A    between atoms: CB_5  and  CG_6
REMARK    6  A    between atoms: CG_6  and  SD_7
REMARK    7  A    between atoms: SD_7  and  CE_8
REMARK                            x       y       z     vdW  Elec       q    Type
REMARK                         _______ _______ _______ _____ _____    ______ ____
ROOT
ATOM      1  CA  MET B   1      -3.529  -0.091   6.933  0.00  0.00    +0.000 C 
ENDROOT
BRANCH   1   2
ATOM      2  N   MET B   1      -2.358  -0.935   7.063  0.00  0.00    +0.000 NA
ATOM      3  H   MET B   1      -1.517  -0.365   6.972  0.00  0.00    +0.000 HD
ATOM      4  H   MET B   1      -2.368  -1.645   6.331  0.00  0.00    +0.000 HD
ENDBRANCH   1   2
BRANCH   1   5
ATOM      5  C   MET B   1      -4.793  -0.902   7.062  0.00  0.00    +0.000 C 
ATOM      6  OXT MET B   1      -5.699  -0.752   6.261  0.00  0.00    +0.000 OA
BRANCH   5   7
ATOM      7  O   MET B   1      -4.929  -1.697   7.990  0.00  0.00    +0.000 OA
ATOM      8  H   MET B   1      -4.236  -1.817   8.609  0.00  0.00    +0.000 HD
ENDBRANCH   5   7
ENDBRANCH   1   5
BRANCH   1   9
ATOM      9  CB  MET B   1      -3.494   0.648   5.609  0.00  0.00    +0.000 C 
BRANCH   9  10
ATOM     10  CG  MET B   1      -2.865   2.021   5.735  0.00  0.00    +0.000 C 
BRANCH  10  11
ATOM     11  SD  MET B   1      -1.206   2.091   5.090  0.00  0.00    +0.000 S 
ATOM     12  CE  MET B   1      -0.847   3.804   5.277  0.00  0.00    +0.000 C 
ENDBRANCH  10  11
ENDBRANCH   9  10
ENDBRANCH   1   9
TORSDOF 6
