REMARK  Name = /storage/kiran-stuff/aaRS/phase2/energy_scoring/vina_182jobs/anc_prors_cat_PRO_PRO/ligand.h.pdb
REMARK  2 active torsions:
REMARK  status: ('A' for Active; 'I' for Inactive)
REMARK    1  A    between atoms: CA_2  and  C_3
REMARK    2  A    between atoms: C_3  and  OXT_8
REMARK                            x       y       z     vdW  Elec       q    Type
REMARK                         _______ _______ _______ _____ _____    ______ ____
ROOT
ATOM      1  N   PRO B   1       0.758 -12.976   4.024  0.00  0.00    +0.000 NA
ATOM      2  CA  PRO B   1      -0.625 -12.539   4.185  0.00  0.00    +0.000 C 
ATOM      3  CB  PRO B   1      -0.732 -12.114   5.631  0.00  0.00    +0.000 C 
ATOM      4  CG  PRO B   1       0.411 -12.722   6.345  0.00  0.00    +0.000 C 
ATOM      5  CD  PRO B   1       1.267 -13.414   5.315  0.00  0.00    +0.000 C 
ATOM      6  H   PRO B   1       1.324 -12.201   3.678  0.00  0.00    +0.000 HD
ENDROOT
BRANCH   2   7
ATOM      7  C   PRO B   1      -0.989 -11.412   3.237  0.00  0.00    +0.000 C 
ATOM      8  O   PRO B   1      -0.118 -10.655   2.818  0.00  0.00    +0.000 OA
BRANCH   7   9
ATOM      9  OXT PRO B   1      -2.171 -11.259   2.913  0.00  0.00    +0.000 OA
ATOM     10  H   PRO B   1      -2.826 -11.843   3.240  0.00  0.00    +0.000 HD
ENDBRANCH   7   9
ENDBRANCH   2   7
TORSDOF 2
