REMARK  Name = /storage/kiran-stuff/aaRS/phase2/energy_scoring/vina_182jobs/anc_prors_cat_PRO_PRO/ligand.h.pdb
REMARK  2 active torsions:
REMARK  status: ('A' for Active; 'I' for Inactive)
REMARK    1  A    between atoms: CA_2  and  C_3
REMARK    2  A    between atoms: C_3  and  OXT_8
REMARK                            x       y       z     vdW  Elec       q    Type
REMARK                         _______ _______ _______ _____ _____    ______ ____
ROOT
ATOM      1  N   PRO B   1       1.187 -13.731   4.545  0.00  0.00    +0.000 NA
ATOM      2  CA  PRO B   1      -0.028 -13.572   5.338  0.00  0.00    +0.000 C 
ATOM      3  CB  PRO B   1       0.456 -13.184   6.715  0.00  0.00    +0.000 C 
ATOM      4  CG  PRO B   1       1.883 -13.563   6.794  0.00  0.00    +0.000 C 
ATOM      5  CD  PRO B   1       2.288 -14.069   5.433  0.00  0.00    +0.000 C 
ATOM      6  H   PRO B   1       1.395 -12.859   4.058  0.00  0.00    +0.000 HD
ENDROOT
BRANCH   2   7
ATOM      7  C   PRO B   1      -0.966 -12.531   4.755  0.00  0.00    +0.000 C 
ATOM      8  O   PRO B   1      -0.699 -11.993   3.684  0.00  0.00    +0.000 OA
BRANCH   7   9
ATOM      9  OXT PRO B   1      -1.984 -12.223   5.382  0.00  0.00    +0.000 OA
ATOM     10  H   PRO B   1      -2.176 -12.641   6.198  0.00  0.00    +0.000 HD
ENDBRANCH   7   9
ENDBRANCH   2   7
TORSDOF 2
