REMARK  Name = /storage/kiran-stuff/aaRS/phase2/energy_scoring/vina_182jobs/anc_thrrs_cat_LYS_LYS/ligand.h.pdb
REMARK  8 active torsions:
REMARK  status: ('A' for Active; 'I' for Inactive)
REMARK    1  A    between atoms: N_1  and  CA_2
REMARK    2  A    between atoms: CA_2  and  C_3
REMARK    3  A    between atoms: CA_2  and  CB_5
REMARK    4  A    between atoms: C_3  and  O_4
REMARK    5  A    between atoms: CB_5  and  CG_6
REMARK    6  A    between atoms: CG_6  and  CD_7
REMARK    7  A    between atoms: CD_7  and  CE_8
REMARK    8  A    between atoms: CE_8  and  NZ_9
REMARK                            x       y       z     vdW  Elec       q    Type
REMARK                         _______ _______ _______ _____ _____    ______ ____
ROOT
ATOM      1  CA  LYS B   1       7.661   7.741  10.591  0.00  0.00    +0.000 C 
ENDROOT
BRANCH   1   2
ATOM      2  N   LYS B   1       6.563   7.388  11.482  0.00  0.00    +0.000 NA
ATOM      3  H   LYS B   1       6.089   6.558  11.126  0.00  0.00    +0.000 HD
ATOM      4  H   LYS B   1       5.901   8.163  11.530  0.00  0.00    +0.000 HD
ENDBRANCH   1   2
BRANCH   1   5
ATOM      5  C   LYS B   1       8.650   6.604  10.453  0.00  0.00    +0.000 C 
ATOM      6  OXT LYS B   1       9.408   6.573   9.472  0.00  0.00    +0.000 OA
BRANCH   5   7
ATOM      7  O   LYS B   1       8.726   5.724  11.306  0.00  0.00    +0.000 OA
ATOM      8  H   LYS B   1       8.156   5.742  12.050  0.00  0.00    +0.000 HD
ENDBRANCH   5   7
ENDBRANCH   1   5
BRANCH   1   9
ATOM      9  CB  LYS B   1       8.353   8.975  11.135  0.00  0.00    +0.000 C 
BRANCH   9  10
ATOM     10  CG  LYS B   1       8.332  10.113  10.156  0.00  0.00    +0.000 C 
BRANCH  10  11
ATOM     11  CD  LYS B   1       8.683  11.440  10.803  0.00  0.00    +0.000 C 
BRANCH  11  12
ATOM     12  CE  LYS B   1       8.113  12.589   9.983  0.00  0.00    +0.000 C 
BRANCH  12  13
ATOM     13  NZ  LYS B   1       8.538  13.884  10.510  0.00  0.00    +0.000 NA
ATOM     14  H   LYS B   1       9.555  13.950  10.471  0.00  0.00    +0.000 HD
ATOM     15  H   LYS B   1       8.228  13.976  11.477  0.00  0.00    +0.000 HD
ENDBRANCH  12  13
ENDBRANCH  11  12
ENDBRANCH  10  11
ENDBRANCH   9  10
ENDBRANCH   1   9
TORSDOF 8
