REMARK  Name = /storage/kiran-stuff/aaRS/phase2/energy_scoring/vina_182jobs/anc_thrrs_cat_LYS_LYS/ligand.h.pdb
REMARK  8 active torsions:
REMARK  status: ('A' for Active; 'I' for Inactive)
REMARK    1  A    between atoms: N_1  and  CA_2
REMARK    2  A    between atoms: CA_2  and  C_3
REMARK    3  A    between atoms: CA_2  and  CB_5
REMARK    4  A    between atoms: C_3  and  O_4
REMARK    5  A    between atoms: CB_5  and  CG_6
REMARK    6  A    between atoms: CG_6  and  CD_7
REMARK    7  A    between atoms: CD_7  and  CE_8
REMARK    8  A    between atoms: CE_8  and  NZ_9
REMARK                            x       y       z     vdW  Elec       q    Type
REMARK                         _______ _______ _______ _____ _____    ______ ____
ROOT
ATOM      1  CA  LYS B   1       7.533   7.765  10.620  0.00  0.00    +0.000 C 
ENDROOT
BRANCH   1   2
ATOM      2  N   LYS B   1       6.444   7.411  11.521  0.00  0.00    +0.000 NA
ATOM      3  H   LYS B   1       5.989   6.561  11.188  0.00  0.00    +0.000 HD
ATOM      4  H   LYS B   1       5.763   8.172  11.547  0.00  0.00    +0.000 HD
ENDBRANCH   1   2
BRANCH   1   5
ATOM      5  C   LYS B   1       8.549   6.649  10.513  0.00  0.00    +0.000 C 
ATOM      6  OXT LYS B   1       9.439   6.717   9.652  0.00  0.00    +0.000 OA
BRANCH   5   7
ATOM      7  O   LYS B   1       8.516   5.688  11.277  0.00  0.00    +0.000 OA
ATOM      8  H   LYS B   1       7.846   5.631  11.930  0.00  0.00    +0.000 HD
ENDBRANCH   5   7
ENDBRANCH   1   5
BRANCH   1   9
ATOM      9  CB  LYS B   1       8.196   9.030  11.129  0.00  0.00    +0.000 C 
BRANCH   9  10
ATOM     10  CG  LYS B   1       8.521   9.985  10.018  0.00  0.00    +0.000 C 
BRANCH  10  11
ATOM     11  CD  LYS B   1       8.981  11.337  10.532  0.00  0.00    +0.000 C 
BRANCH  11  12
ATOM     12  CE  LYS B   1       8.866  12.382   9.431  0.00  0.00    +0.000 C 
BRANCH  12  13
ATOM     13  NZ  LYS B   1       9.431  13.663   9.850  0.00  0.00    +0.000 NA
ATOM     14  H   LYS B   1      10.422  13.545  10.062  0.00  0.00    +0.000 HD
ATOM     15  H   LYS B   1       8.943  13.996  10.680  0.00  0.00    +0.000 HD
ENDBRANCH  12  13
ENDBRANCH  11  12
ENDBRANCH  10  11
ENDBRANCH   9  10
ENDBRANCH   1   9
TORSDOF 8
