REMARK  Name = /storage/kiran-stuff/aaRS/phase2/energy_scoring/gromacs_4systems/systemB_thrrs_SER/ligand_chain.h.pdb
REMARK  5 active torsions:
REMARK  status: ('A' for Active; 'I' for Inactive)
REMARK    1  A    between atoms: N_1  and  CA_2
REMARK    2  A    between atoms: CA_2  and  C_3
REMARK    3  A    between atoms: CA_2  and  CB_5
REMARK    4  A    between atoms: C_3  and  O_4
REMARK    5  A    between atoms: CB_5  and  OG_6
REMARK                            x       y       z     vdW  Elec       q    Type
REMARK                         _______ _______ _______ _____ _____    ______ ____
ROOT
ATOM      1  CA  SER B   1      -2.041   1.674  10.856  0.00  0.00    +0.000 C 
ENDROOT
BRANCH   1   2
ATOM      2  N   SER B   1      -1.843   1.015  12.147  0.00  0.00    +0.000 NA
ATOM      3  H   SER B   1      -0.932   1.276  12.526  0.00  0.00    +0.000 HD
ATOM      4  H   SER B   1      -1.882   0.003  12.022  0.00  0.00    +0.000 HD
ENDBRANCH   1   2
BRANCH   1   5
ATOM      5  C   SER B   1      -3.380   1.311  10.265  0.00  0.00    +0.000 C 
ATOM      6  OXT SER B   1      -3.871   2.068   9.402  0.00  0.00    +0.000 OA
BRANCH   5   7
ATOM      7  O   SER B   1      -3.932   0.258  10.595  0.00  0.00    +0.000 OA
ATOM      8  H   SER B   1      -3.542  -0.292  11.246  0.00  0.00    +0.000 HD
ENDBRANCH   5   7
ENDBRANCH   1   5
BRANCH   1   9
ATOM      9  CB  SER B   1      -0.933   1.266   9.909  0.00  0.00    +0.000 C 
BRANCH   9  10
ATOM     10  OG  SER B   1       0.330   1.446  10.436  0.00  0.00    +0.000 OA
ATOM     11  H   SER B   1       0.434   0.890  11.224  0.00  0.00    +0.000 HD
ENDBRANCH   9  10
ENDBRANCH   1   9
TORSDOF 5
