REMARK  Name = /storage/kiran-stuff/aaRS/phase2/energy_scoring/vina_182jobs/anc_thrrs_cat_zn_SER_SER/ligand.h.pdb
REMARK  5 active torsions:
REMARK  status: ('A' for Active; 'I' for Inactive)
REMARK    1  A    between atoms: N_1  and  CA_2
REMARK    2  A    between atoms: CA_2  and  C_3
REMARK    3  A    between atoms: CA_2  and  CB_5
REMARK    4  A    between atoms: C_3  and  OXT_7
REMARK    5  A    between atoms: CB_5  and  OG_6
REMARK                            x       y       z     vdW  Elec       q    Type
REMARK                         _______ _______ _______ _____ _____    ______ ____
ROOT
ATOM      1  CA  SER B   1      -3.764   7.567  -1.938  0.00  0.00    +0.000 C 
ENDROOT
BRANCH   1   2
ATOM      2  N   SER B   1      -4.934   6.747  -1.677  0.00  0.00    +0.000 NA
ATOM      3  H   SER B   1      -5.715   7.078  -2.244  0.00  0.00    +0.000 HD
ATOM      4  H   SER B   1      -5.180   6.811  -0.689  0.00  0.00    +0.000 HD
ENDBRANCH   1   2
BRANCH   1   5
ATOM      5  C   SER B   1      -3.407   7.542  -3.407  0.00  0.00    +0.000 C 
ATOM      6  O   SER B   1      -4.070   6.889  -4.191  0.00  0.00    +0.000 OA
BRANCH   5   7
ATOM      7  OXT SER B   1      -2.459   8.201  -3.820  0.00  0.00    +0.000 OA
ATOM      8  H   SER B   1      -1.944   8.706  -3.222  0.00  0.00    +0.000 HD
ENDBRANCH   5   7
ENDBRANCH   1   5
BRANCH   1   9
ATOM      9  CB  SER B   1      -2.631   7.049  -1.083  0.00  0.00    +0.000 C 
BRANCH   9  10
ATOM     10  OG  SER B   1      -1.404   7.595  -1.436  0.00  0.00    +0.000 OA
ATOM     11  H   SER B   1      -1.194   7.354  -2.352  0.00  0.00    +0.000 HD
ENDBRANCH   9  10
ENDBRANCH   1   9
TORSDOF 5
