REMARK  Name = /storage/kiran-stuff/aaRS/phase2/energy_scoring/vina_182jobs/anc_thrrs_cat_zn_SER_SER/ligand.h.pdb
REMARK  5 active torsions:
REMARK  status: ('A' for Active; 'I' for Inactive)
REMARK    1  A    between atoms: N_1  and  CA_2
REMARK    2  A    between atoms: CA_2  and  C_3
REMARK    3  A    between atoms: CA_2  and  CB_5
REMARK    4  A    between atoms: C_3  and  OXT_7
REMARK    5  A    between atoms: CB_5  and  OG_6
REMARK                            x       y       z     vdW  Elec       q    Type
REMARK                         _______ _______ _______ _____ _____    ______ ____
ROOT
ATOM      1  CA  SER B   1      -3.912   7.535  -1.943  0.00  0.00    +0.000 C 
ENDROOT
BRANCH   1   2
ATOM      2  N   SER B   1      -4.984   6.584  -1.707  0.00  0.00    +0.000 NA
ATOM      3  H   SER B   1      -5.874   7.000  -1.981  0.00  0.00    +0.000 HD
ATOM      4  H   SER B   1      -5.012   6.344  -0.716  0.00  0.00    +0.000 HD
ENDBRANCH   1   2
BRANCH   1   5
ATOM      5  C   SER B   1      -3.880   7.959  -3.394  0.00  0.00    +0.000 C 
ATOM      6  O   SER B   1      -4.117   7.155  -4.276  0.00  0.00    +0.000 OA
BRANCH   5   7
ATOM      7  OXT SER B   1      -3.637   9.124  -3.689  0.00  0.00    +0.000 OA
ATOM      8  H   SER B   1      -3.453   9.749  -3.015  0.00  0.00    +0.000 HD
ENDBRANCH   5   7
ENDBRANCH   1   5
BRANCH   1   9
ATOM      9  CB  SER B   1      -2.612   6.887  -1.526  0.00  0.00    +0.000 C 
BRANCH   9  10
ATOM     10  OG  SER B   1      -1.533   7.318  -2.286  0.00  0.00    +0.000 OA
ATOM     11  H   SER B   1      -1.677   7.080  -3.216  0.00  0.00    +0.000 HD
ENDBRANCH   9  10
ENDBRANCH   1   9
TORSDOF 5
