REMARK  Name = /storage/kiran-stuff/aaRS/phase2/energy_scoring/vina_182jobs/modern_thrrs_ILE_ILE/ligand.h.pdb
REMARK  7 active torsions:
REMARK  status: ('A' for Active; 'I' for Inactive)
REMARK    1  A    between atoms: N_1  and  CA_2
REMARK    2  A    between atoms: CA_2  and  C_3
REMARK    3  A    between atoms: CA_2  and  CB_5
REMARK    4  A    between atoms: C_3  and  OXT_9
REMARK    5  A    between atoms: CB_5  and  CG1_6
REMARK    6  A    between atoms: CB_5  and  CG2_7
REMARK    7  A    between atoms: CG1_6  and  CD1_8
REMARK                            x       y       z     vdW  Elec       q    Type
REMARK                         _______ _______ _______ _____ _____    ______ ____
ROOT
ATOM      1  CA  ILE B   1      10.096  13.249  -6.389  0.00  0.00    +0.000 C 
ENDROOT
BRANCH   1   2
ATOM      2  N   ILE B   1       8.761  13.718  -6.781  0.00  0.00    +0.000 NA
ATOM      3  H   ILE B   1       8.668  14.707  -6.552  0.00  0.00    +0.000 HD
ATOM      4  H   ILE B   1       8.052  13.184  -6.278  0.00  0.00    +0.000 HD
ENDBRANCH   1   2
BRANCH   1   5
ATOM      5  C   ILE B   1      11.183  14.065  -7.071  0.00  0.00    +0.000 C 
ATOM      6  O   ILE B   1      10.861  14.924  -7.891  0.00  0.00    +0.000 OA
BRANCH   5   7
ATOM      7  OXT ILE B   1      12.369  13.903  -6.772  0.00  0.00    +0.000 OA
ATOM      8  H   ILE B   1      12.609  13.247  -6.147  0.00  0.00    +0.000 HD
ENDBRANCH   5   7
ENDBRANCH   1   5
BRANCH   1   9
ATOM      9  CB  ILE B   1      10.256  11.752  -6.729  0.00  0.00    +0.000 C 
ATOM     10  CG2 ILE B   1      10.860  10.980  -5.607  0.00  0.00    +0.000 C 
BRANCH   9  11
ATOM     11  CG1 ILE B   1      11.100  11.544  -7.983  0.00  0.00    +0.000 C 
ATOM     12  CD1 ILE B   1      11.446  10.117  -8.151  0.00  0.00    +0.000 C 
ENDBRANCH   9  11
ENDBRANCH   1   9
TORSDOF 5
