REMARK  Name = /storage/kiran-stuff/aaRS/phase2/energy_scoring/vina_182jobs/modern_thrrs_ILE_ILE/ligand.h.pdb
REMARK  7 active torsions:
REMARK  status: ('A' for Active; 'I' for Inactive)
REMARK    1  A    between atoms: N_1  and  CA_2
REMARK    2  A    between atoms: CA_2  and  C_3
REMARK    3  A    between atoms: CA_2  and  CB_5
REMARK    4  A    between atoms: C_3  and  OXT_9
REMARK    5  A    between atoms: CB_5  and  CG1_6
REMARK    6  A    between atoms: CB_5  and  CG2_7
REMARK    7  A    between atoms: CG1_6  and  CD1_8
REMARK                            x       y       z     vdW  Elec       q    Type
REMARK                         _______ _______ _______ _____ _____    ______ ____
ROOT
ATOM      1  CA  ILE B   1       9.549  13.028  -6.603  0.00  0.00    +0.000 C 
ENDROOT
BRANCH   1   2
ATOM      2  N   ILE B   1       8.151  12.899  -7.031  0.00  0.00    +0.000 NA
ATOM      3  H   ILE B   1       7.842  13.775  -7.452  0.00  0.00    +0.000 HD
ATOM      4  H   ILE B   1       7.566  12.685  -6.223  0.00  0.00    +0.000 HD
ENDBRANCH   1   2
BRANCH   1   5
ATOM      5  C   ILE B   1      10.445  13.409  -7.771  0.00  0.00    +0.000 C 
ATOM      6  O   ILE B   1       9.954  13.505  -8.895  0.00  0.00    +0.000 OA
BRANCH   5   7
ATOM      7  OXT ILE B   1      11.637  13.667  -7.588  0.00  0.00    +0.000 OA
ATOM      8  H   ILE B   1      12.006  13.592  -6.730  0.00  0.00    +0.000 HD
ENDBRANCH   5   7
ENDBRANCH   1   5
BRANCH   1   9
ATOM      9  CB  ILE B   1      10.034  11.709  -5.963  0.00  0.00    +0.000 C 
ATOM     10  CG2 ILE B   1      11.389  11.841  -5.357  0.00  0.00    +0.000 C 
BRANCH   9  11
ATOM     11  CG1 ILE B   1      10.053  10.565  -6.972  0.00  0.00    +0.000 C 
ATOM     12  CD1 ILE B   1      10.675   9.360  -6.385  0.00  0.00    +0.000 C 
ENDBRANCH   9  11
ENDBRANCH   1   9
TORSDOF 5
