REMARK  Name = /storage/kiran-stuff/aaRS/phase2/energy_scoring/vina_182jobs/COMPETITION_FULL_anc_prors_PRO_vs_THR_THR/ligand.h.pdb
REMARK  2 active torsions:
REMARK  status: ('A' for Active; 'I' for Inactive)
REMARK    1  A    between atoms: CA_2  and  C_3
REMARK    2  A    between atoms: C_3  and  OXT_8
REMARK                            x       y       z     vdW  Elec       q    Type
REMARK                         _______ _______ _______ _____ _____    ______ ____
ROOT
ATOM      1  N   PRO B   1      15.723  11.417 -18.442  0.00  0.00    +0.000 NA
ATOM      2  CA  PRO B   1      15.219  11.360 -17.048  0.00  0.00    +0.000 C 
ATOM      3  CB  PRO B   1      16.470  11.421 -16.198  0.00  0.00    +0.000 C 
ATOM      4  CG  PRO B   1      17.468  12.089 -17.058  0.00  0.00    +0.000 C 
ATOM      5  CD  PRO B   1      17.156  11.649 -18.446  0.00  0.00    +0.000 C 
ATOM      6  H   PRO B   1      15.523  10.533 -18.909  0.00  0.00    +0.000 HD
ENDROOT
BRANCH   2   7
ATOM      7  C   PRO B   1      14.310  12.559 -16.726  0.00  0.00    +0.000 C 
ATOM      8  O   PRO B   1      14.076  13.391 -17.579  0.00  0.00    +0.000 OA
BRANCH   7   9
ATOM      9  OXT PRO B   1      13.837  12.625 -15.594  0.00  0.00    +0.000 OA
ATOM     10  H   PRO B   1      14.040  11.964 -14.962  0.00  0.00    +0.000 HD
ENDBRANCH   7   9
ENDBRANCH   2   7
TORSDOF 2
