REMARK  Name = /storage/kiran-stuff/aaRS/phase2/energy_scoring/vina_182jobs/COMPETITION_FULL_anc_prors_PRO_vs_THR_THR/ligand.h.pdb
REMARK  2 active torsions:
REMARK  status: ('A' for Active; 'I' for Inactive)
REMARK    1  A    between atoms: CA_2  and  C_3
REMARK    2  A    between atoms: C_3  and  OXT_8
REMARK                            x       y       z     vdW  Elec       q    Type
REMARK                         _______ _______ _______ _____ _____    ______ ____
ROOT
ATOM      1  N   PRO B   1      15.223  11.865 -18.069  0.00  0.00    +0.000 NA
ATOM      2  CA  PRO B   1      14.579  11.515 -16.779  0.00  0.00    +0.000 C 
ATOM      3  CB  PRO B   1      15.702  11.603 -15.768  0.00  0.00    +0.000 C 
ATOM      4  CG  PRO B   1      16.677  12.529 -16.379  0.00  0.00    +0.000 C 
ATOM      5  CD  PRO B   1      16.595  12.284 -17.846  0.00  0.00    +0.000 C 
ATOM      6  H   PRO B   1      15.214  11.051 -18.682  0.00  0.00    +0.000 HD
ENDROOT
BRANCH   2   7
ATOM      7  C   PRO B   1      13.467  12.514 -16.413  0.00  0.00    +0.000 C 
ATOM      8  O   PRO B   1      13.039  13.281 -17.251  0.00  0.00    +0.000 OA
BRANCH   7   9
ATOM      9  OXT PRO B   1      13.039  12.490 -15.262  0.00  0.00    +0.000 OA
ATOM     10  H   PRO B   1      13.394  11.883 -14.642  0.00  0.00    +0.000 HD
ENDBRANCH   7   9
ENDBRANCH   2   7
TORSDOF 2
