REMARK  Name = /storage/kiran-stuff/aaRS/phase2/energy_scoring/vina_182jobs/anc_thrrs_cat_zn_ASN_ASN/ligand.h.pdb
REMARK  5 active torsions:
REMARK  status: ('A' for Active; 'I' for Inactive)
REMARK    1  A    between atoms: N_1  and  CA_2
REMARK    2  A    between atoms: CA_2  and  C_3
REMARK    3  A    between atoms: CA_2  and  CB_5
REMARK    4  A    between atoms: C_3  and  O_4
REMARK    5  A    between atoms: CB_5  and  CG_6
REMARK                            x       y       z     vdW  Elec       q    Type
REMARK                         _______ _______ _______ _____ _____    ______ ____
ROOT
ATOM      1  CA  ASN B   1      -4.127   0.945   6.043  0.00  0.00    +0.000 C 
ENDROOT
BRANCH   1   2
ATOM      2  N   ASN B   1      -3.017   0.741   6.959  0.00  0.00    +0.000 NA
ATOM      3  H   ASN B   1      -2.432   1.576   6.975  0.00  0.00    +0.000 HD
ATOM      4  H   ASN B   1      -2.462  -0.057   6.649  0.00  0.00    +0.000 HD
ENDBRANCH   1   2
BRANCH   1   5
ATOM      5  C   ASN B   1      -5.029  -0.272   5.983  0.00  0.00    +0.000 C 
ATOM      6  OXT ASN B   1      -5.991  -0.247   5.223  0.00  0.00    +0.000 OA
BRANCH   5   7
ATOM      7  O   ASN B   1      -4.814  -1.267   6.672  0.00  0.00    +0.000 OA
ATOM      8  H   ASN B   1      -4.079  -1.285   7.252  0.00  0.00    +0.000 HD
ENDBRANCH   5   7
ENDBRANCH   1   5
BRANCH   1   9
ATOM      9  CB  ASN B   1      -3.597   1.247   4.646  0.00  0.00    +0.000 C 
BRANCH   9  10
ATOM     10  CG  ASN B   1      -3.047   2.645   4.503  0.00  0.00    +0.000 C 
ATOM     11  OD1 ASN B   1      -3.615   3.439   3.777  0.00  0.00    +0.000 OA
ATOM     12  ND2 ASN B   1      -1.973   3.013   5.200  0.00  0.00    +0.000 N 
ATOM     13  H   ASN B   1      -1.614   3.925   5.107  0.00  0.00    +0.000 HD
ATOM     14  H   ASN B   1      -1.538   2.373   5.808  0.00  0.00    +0.000 HD
ENDBRANCH   9  10
ENDBRANCH   1   9
TORSDOF 5
