REMARK  Name = /storage/kiran-stuff/aaRS/phase2/energy_scoring/vina_182jobs/modern_prors_ASN_ASN/ligand.h.pdb
REMARK  5 active torsions:
REMARK  status: ('A' for Active; 'I' for Inactive)
REMARK    1  A    between atoms: N_1  and  CA_2
REMARK    2  A    between atoms: CA_2  and  C_3
REMARK    3  A    between atoms: CA_2  and  CB_5
REMARK    4  A    between atoms: C_3  and  O_4
REMARK    5  A    between atoms: CB_5  and  CG_6
REMARK                            x       y       z     vdW  Elec       q    Type
REMARK                         _______ _______ _______ _____ _____    ______ ____
ROOT
ATOM      1  CA  ASN B   1      12.350  -0.220   0.695  0.00  0.00    +0.000 C 
ENDROOT
BRANCH   1   2
ATOM      2  N   ASN B   1      11.136  -0.719   1.357  0.00  0.00    +0.000 NA
ATOM      3  H   ASN B   1      10.314  -0.387   0.854  0.00  0.00    +0.000 HD
ATOM      4  H   ASN B   1      11.108  -0.378   2.318  0.00  0.00    +0.000 HD
ENDBRANCH   1   2
BRANCH   1   5
ATOM      5  C   ASN B   1      13.595  -0.691   1.411  0.00  0.00    +0.000 C 
ATOM      6  OXT ASN B   1      14.096  -1.790   1.120  0.00  0.00    +0.000 OA
BRANCH   5   7
ATOM      7  O   ASN B   1      14.137   0.012   2.270  0.00  0.00    +0.000 OA
ATOM      8  H   ASN B   1      13.768   0.843   2.498  0.00  0.00    +0.000 HD
ENDBRANCH   5   7
ENDBRANCH   1   5
BRANCH   1   9
ATOM      9  CB  ASN B   1      12.316   1.300   0.720  0.00  0.00    +0.000 C 
BRANCH   9  10
ATOM     10  CG  ASN B   1      11.182   1.794   1.550  0.00  0.00    +0.000 C 
ATOM     11  OD1 ASN B   1      11.306   1.944   2.746  0.00  0.00    +0.000 OA
ATOM     12  ND2 ASN B   1      10.039   2.101   0.918  0.00  0.00    +0.000 N 
ATOM     13  H   ASN B   1       9.267   2.431   1.430  0.00  0.00    +0.000 HD
ATOM     14  H   ASN B   1       9.973   1.996  -0.059  0.00  0.00    +0.000 HD
ENDBRANCH   9  10
ENDBRANCH   1   9
TORSDOF 5
