REMARK  Name = /storage/kiran-stuff/aaRS/phase2/energy_scoring/vina_182jobs/modern_prors_ASN_ASN/ligand.h.pdb
REMARK  5 active torsions:
REMARK  status: ('A' for Active; 'I' for Inactive)
REMARK    1  A    between atoms: N_1  and  CA_2
REMARK    2  A    between atoms: CA_2  and  C_3
REMARK    3  A    between atoms: CA_2  and  CB_5
REMARK    4  A    between atoms: C_3  and  O_4
REMARK    5  A    between atoms: CB_5  and  CG_6
REMARK                            x       y       z     vdW  Elec       q    Type
REMARK                         _______ _______ _______ _____ _____    ______ ____
ROOT
ATOM      1  CA  ASN B   1      12.661   0.986   1.487  0.00  0.00    +0.000 C 
ENDROOT
BRANCH   1   2
ATOM      2  N   ASN B   1      13.898   1.002   2.281  0.00  0.00    +0.000 NA
ATOM      3  H   ASN B   1      14.613   0.451   1.807  0.00  0.00    +0.000 HD
ATOM      4  H   ASN B   1      13.716   0.603   3.202  0.00  0.00    +0.000 HD
ENDBRANCH   1   2
BRANCH   1   5
ATOM      5  C   ASN B   1      11.573   1.793   2.156  0.00  0.00    +0.000 C 
ATOM      6  OXT ASN B   1      10.577   2.148   1.503  0.00  0.00    +0.000 OA
BRANCH   5   7
ATOM      7  O   ASN B   1      11.648   2.090   3.353  0.00  0.00    +0.000 OA
ATOM      8  H   ASN B   1      12.394   1.828   3.855  0.00  0.00    +0.000 HD
ENDBRANCH   5   7
ENDBRANCH   1   5
BRANCH   1   9
ATOM      9  CB  ASN B   1      12.195  -0.455   1.360  0.00  0.00    +0.000 C 
BRANCH   9  10
ATOM     10  CG  ASN B   1      11.166  -0.591   0.292  0.00  0.00    +0.000 C 
ATOM     11  OD1 ASN B   1       9.999  -0.355   0.520  0.00  0.00    +0.000 OA
ATOM     12  ND2 ASN B   1      11.586  -0.945  -0.932  0.00  0.00    +0.000 N 
ATOM     13  H   ASN B   1      10.937  -1.045  -1.665  0.00  0.00    +0.000 HD
ATOM     14  H   ASN B   1      12.543  -1.104  -1.097  0.00  0.00    +0.000 HD
ENDBRANCH   9  10
ENDBRANCH   1   9
TORSDOF 5
