REMARK  Name = /storage/kiran-stuff/aaRS/phase2/energy_scoring/vina_182jobs/modern_thrrs_ecoli_zn_THR_THR/ligand.h.pdb
REMARK  6 active torsions:
REMARK  status: ('A' for Active; 'I' for Inactive)
REMARK    1  A    between atoms: N_1  and  CA_2
REMARK    2  A    between atoms: CA_2  and  C_3
REMARK    3  A    between atoms: CA_2  and  CB_5
REMARK    4  A    between atoms: C_3  and  OXT_8
REMARK    5  A    between atoms: CB_5  and  OG1_6
REMARK    6  A    between atoms: CB_5  and  CG2_7
REMARK                            x       y       z     vdW  Elec       q    Type
REMARK                         _______ _______ _______ _____ _____    ______ ____
ROOT
ATOM      1  CA  THR B   1     -12.551   0.408  11.089  0.00  0.00    +0.000 C 
ENDROOT
BRANCH   1   2
ATOM      2  N   THR B   1     -13.141  -0.200  12.282  0.00  0.00    +0.000 NA
ATOM      3  H   THR B   1     -14.157  -0.129  12.232  0.00  0.00    +0.000 HD
ATOM      4  H   THR B   1     -12.806   0.287  13.112  0.00  0.00    +0.000 HD
ENDBRANCH   1   2
BRANCH   1   5
ATOM      5  C   THR B   1     -13.092  -0.260   9.851  0.00  0.00    +0.000 C 
ATOM      6  O   THR B   1     -13.248   0.397   8.806  0.00  0.00    +0.000 OA
BRANCH   5   7
ATOM      7  OXT THR B   1     -13.339  -1.481   9.896  0.00  0.00    +0.000 OA
ATOM      8  H   THR B   1     -13.214  -1.955  10.694  0.00  0.00    +0.000 HD
ENDBRANCH   5   7
ENDBRANCH   1   5
BRANCH   1   9
ATOM      9  CB  THR B   1     -11.036   0.318  11.131  0.00  0.00    +0.000 C 
ATOM     10  CG2 THR B   1     -10.385   1.660  10.871  0.00  0.00    +0.000 C 
BRANCH   9  11
ATOM     11  OG1 THR B   1     -10.610  -0.163  12.399  0.00  0.00    +0.000 OA
ATOM     12  H   THR B   1     -10.887   0.459  13.090  0.00  0.00    +0.000 HD
ENDBRANCH   9  11
ENDBRANCH   1   9
TORSDOF 5
