REMARK  Name = /storage/kiran-stuff/aaRS/phase2/energy_scoring/vina_182jobs/proRS_LUCA_Pro_PRO/ligand.h.pdb
REMARK  2 active torsions:
REMARK  status: ('A' for Active; 'I' for Inactive)
REMARK    1  A    between atoms: CA_2  and  C_3
REMARK    2  A    between atoms: C_3  and  OXT_8
REMARK                            x       y       z     vdW  Elec       q    Type
REMARK                         _______ _______ _______ _____ _____    ______ ____
ROOT
ATOM      1  N   PRO L   1     -23.324  23.450 -22.335  0.00  0.00    +0.000 NA
ATOM      2  CA  PRO L   1     -22.623  24.068 -21.204  0.00  0.00    +0.000 C 
ATOM      3  CB  PRO L   1     -23.605  23.969 -20.067  0.00  0.00    +0.000 C 
ATOM      4  CG  PRO L   1     -24.388  22.790 -20.397  0.00  0.00    +0.000 C 
ATOM      5  CD  PRO L   1     -24.497  22.770 -21.873  0.00  0.00    +0.000 C 
ATOM      6  H   PRO L   1     -23.594  24.174 -23.001  0.00  0.00    +0.000 HD
ENDROOT
BRANCH   2   7
ATOM      7  C   PRO L   1     -21.362  23.307 -20.839  0.00  0.00    +0.000 C 
ATOM      8  O   PRO L   1     -21.015  22.351 -21.523  0.00  0.00    +0.000 OA
BRANCH   7   9
ATOM      9  OXT PRO L   1     -20.717  23.695 -19.842  0.00  0.00    +0.000 OA
ATOM     10  H   PRO L   1     -21.018  24.431 -19.347  0.00  0.00    +0.000 HD
ENDBRANCH   7   9
ENDBRANCH   2   7
TORSDOF 2
