REMARK  Name = /storage/kiran-stuff/aaRS/phase2/energy_scoring/vina_182jobs/proRS_LUCA_Pro_PRO/ligand.h.pdb
REMARK  611 active torsions:
REMARK  status: ('A' for Active; 'I' for Inactive)
REMARK    1  A    between atoms: OP3_1  and  P_2
REMARK    2  A    between atoms: OP3_1  and  OP1_3
REMARK    3  A    between atoms: P_2  and  OP2_4
REMARK    4  A    between atoms: P_2  and  O5'_5
REMARK    5  A    between atoms: O5'_5  and  C5'_6
REMARK    6  A    between atoms: C5'_6  and  C4'_7
REMARK    7  A    between atoms: C3'_9  and  O3'_10
REMARK    8  A    between atoms: O3'_10  and  P_22
REMARK    9  A    between atoms: C2'_11  and  O2'_12
REMARK   10  A    between atoms: C1'_13  and  N1_14
REMARK   11  A    between atoms: P_22  and  OP1_23
REMARK   12  A    between atoms: P_22  and  O5'_25
REMARK   13  A    between atoms: O5'_25  and  C5'_26
REMARK   14  A    between atoms: C5'_26  and  C4'_27
REMARK   15  A    between atoms: C3'_29  and  O3'_30
REMARK   16  A    between atoms: O3'_30  and  P_42
REMARK   17  A    between atoms: C2'_31  and  O2'_32
REMARK   18  A    between atoms: C1'_33  and  N1_34
REMARK   19  A    between atoms: P_42  and  OP2_44
REMARK   20  A    between atoms: P_42  and  O5'_45
REMARK   21  A    between atoms: O5'_45  and  C5'_46
REMARK   22  A    between atoms: C5'_46  and  C4'_47
REMARK   23  A    between atoms: C3'_49  and  O3'_50
REMARK   24  A    between atoms: O3'_50  and  P_64
REMARK   25  A    between atoms: C2'_51  and  O2'_52
REMARK   26  A    between atoms: C1'_53  and  N9_54
REMARK   27  A    between atoms: P_64  and  OP2_66
REMARK   28  A    between atoms: P_64  and  O5'_67
REMARK   29  A    between atoms: O5'_67  and  C5'_68
REMARK   30  A    between atoms: C5'_68  and  C4'_69
REMARK   31  A    between atoms: C3'_71  and  O3'_72
REMARK   32  A    between atoms: O3'_72  and  P_86
REMARK   33  A    between atoms: C2'_73  and  O2'_74
REMARK   34  A    between atoms: C1'_75  and  N9_76
REMARK   35  A    between atoms: P_86  and  OP2_88
REMARK   36  A    between atoms: P_86  and  O5'_89
REMARK   37  A    between atoms: O5'_89  and  C5'_90
REMARK   38  A    between atoms: C5'_90  and  C4'_91
REMARK   39  A    between atoms: C3'_93  and  O3'_94
REMARK   40  A    between atoms: O3'_94  and  P_106
REMARK   41  A    between atoms: C2'_95  and  O2'_96
REMARK   42  A    between atoms: C1'_97  and  N1_98
REMARK   43  A    between atoms: P_106  and  OP1_107
REMARK   44  A    between atoms: P_106  and  O5'_109
REMARK   45  A    between atoms: O5'_109  and  C5'_110
REMARK   46  A    between atoms: C5'_110  and  C4'_111
REMARK   47  A    between atoms: C3'_113  and  O3'_114
REMARK   48  A    between atoms: O3'_114  and  P_128
REMARK   49  A    between atoms: C2'_115  and  O2'_116
REMARK   50  A    between atoms: C1'_117  and  N9_118
REMARK   51  A    between atoms: P_128  and  OP1_129
REMARK   52  A    between atoms: P_128  and  O5'_131
REMARK   53  A    between atoms: O5'_131  and  C5'_132
REMARK   54  A    between atoms: C5'_132  and  C4'_133
REMARK   55  A    between atoms: C3'_135  and  O3'_136
REMARK   56  A    between atoms: O3'_136  and  P_148
REMARK   57  A    between atoms: C2'_137  and  O2'_138
REMARK   58  A    between atoms: C1'_139  and  N1_140
REMARK   59  A    between atoms: P_148  and  OP1_149
REMARK   60  A    between atoms: P_148  and  O5'_151
REMARK   61  A    between atoms: O5'_151  and  C5'_152
REMARK   62  A    between atoms: C5'_152  and  C4'_153
REMARK   63  A    between atoms: C3'_155  and  O3'_156
REMARK   64  A    between atoms: O3'_156  and  P_168
REMARK   65  A    between atoms: C2'_157  and  O2'_158
REMARK   66  A    between atoms: C1'_159  and  N1_160
REMARK   67  A    between atoms: P_168  and  OP1_169
REMARK   68  A    between atoms: P_168  and  O5'_171
REMARK   69  A    between atoms: O5'_171  and  C5'_172
REMARK   70  A    between atoms: C5'_172  and  C4'_173
REMARK   71  A    between atoms: C3'_175  and  O3'_176
REMARK   72  A    between atoms: O3'_176  and  P_190
REMARK   73  A    between atoms: C2'_177  and  O2'_178
REMARK   74  A    between atoms: C1'_179  and  N9_180
REMARK   75  A    between atoms: C6_184  and  N6_185
REMARK   76  A    between atoms: P_190  and  OP1_191
REMARK   77  A    between atoms: P_190  and  O5'_193
REMARK   78  A    between atoms: O5'_193  and  C5'_194
REMARK   79  A    between atoms: C5'_194  and  C4'_195
REMARK   80  A    between atoms: C3'_197  and  O3'_198
REMARK   81  A    between atoms: O3'_198  and  P_210
REMARK   82  A    between atoms: C2'_199  and  O2'_200
REMARK   83  A    between atoms: C1'_201  and  N1_202
REMARK   84  A    between atoms: P_210  and  OP1_211
REMARK   85  A    between atoms: P_210  and  O5'_213
REMARK   86  A    between atoms: O5'_213  and  C5'_214
REMARK   87  A    between atoms: C5'_214  and  C4'_215
REMARK   88  A    between atoms: C3'_217  and  O3'_218
REMARK   89  A    between atoms: O3'_218  and  P_230
REMARK   90  A    between atoms: C2'_219  and  O2'_220
REMARK   91  A    between atoms: C1'_221  and  N1_222
REMARK   92  A    between atoms: P_230  and  OP1_231
REMARK   93  A    between atoms: P_230  and  O5'_233
REMARK   94  A    between atoms: O5'_233  and  C5'_234
REMARK   95  A    between atoms: C5'_234  and  C4'_235
REMARK   96  A    between atoms: C3'_237  and  O3'_238
REMARK   97  A    between atoms: O3'_238  and  P_250
REMARK   98  A    between atoms: C2'_239  and  O2'_240
REMARK   99  A    between atoms: C1'_241  and  N1_242
REMARK  100  A    between atoms: P_250  and  OP2_252
REMARK  101  A    between atoms: P_250  and  O5'_253
REMARK  102  A    between atoms: O5'_253  and  C5'_254
REMARK  103  A    between atoms: C5'_254  and  C4'_255
REMARK  104  A    between atoms: C3'_257  and  O3'_258
REMARK  105  A    between atoms: O3'_258  and  P_270
REMARK  106  A    between atoms: C2'_259  and  O2'_260
REMARK  107  A    between atoms: C1'_261  and  N1_262
REMARK  108  A    between atoms: P_270  and  OP2_272
REMARK  109  A    between atoms: P_270  and  O5'_273
REMARK  110  A    between atoms: O5'_273  and  C5'_274
REMARK  111  A    between atoms: C5'_274  and  C4'_275
REMARK  112  A    between atoms: C3'_277  and  O3'_278
REMARK  113  A    between atoms: O3'_278  and  P_292
REMARK  114  A    between atoms: C2'_279  and  O2'_280
REMARK  115  A    between atoms: C1'_281  and  N9_282
REMARK  116  A    between atoms: P_292  and  OP2_294
REMARK  117  A    between atoms: P_292  and  O5'_295
REMARK  118  A    between atoms: O5'_295  and  C5'_296
REMARK  119  A    between atoms: C5'_296  and  C4'_297
REMARK  120  A    between atoms: C1'_303  and  N1_304
REMARK  121  A    between atoms: P_312  and  OP1_313
REMARK  122  A    between atoms: C3'_319  and  O3'_320
REMARK  123  A    between atoms: O3'_320  and  P_332
REMARK  124  A    between atoms: C2'_321  and  O2'_322
REMARK  125  A    between atoms: P_332  and  OP1_333
REMARK  126  A    between atoms: P_332  and  O5'_335
REMARK  127  A    between atoms: O5'_335  and  C5'_336
REMARK  128  A    between atoms: C5'_336  and  C4'_337
REMARK  129  A    between atoms: C3'_339  and  O3'_340
REMARK  130  A    between atoms: O3'_340  and  P_352
REMARK  131  A    between atoms: C2'_341  and  O2'_342
REMARK  132  A    between atoms: C1'_343  and  N1_344
REMARK  133  A    between atoms: P_352  and  OP2_354
REMARK  134  A    between atoms: P_352  and  O5'_355
REMARK  135  A    between atoms: O5'_355  and  C5'_356
REMARK  136  A    between atoms: C5'_356  and  C4'_357
REMARK  137  A    between atoms: C3'_359  and  O3'_360
REMARK  138  A    between atoms: O3'_360  and  P_375
REMARK  139  A    between atoms: C2'_361  and  O2'_362
REMARK  140  A    between atoms: C1'_363  and  N9_364
REMARK  141  A    between atoms: P_375  and  OP2_377
REMARK  142  A    between atoms: P_375  and  O5'_378
REMARK  143  A    between atoms: O5'_378  and  C5'_379
REMARK  144  A    between atoms: C5'_379  and  C4'_380
REMARK  145  A    between atoms: C3'_382  and  O3'_383
REMARK  146  A    between atoms: O3'_383  and  P_397
REMARK  147  A    between atoms: C2'_384  and  O2'_385
REMARK  148  A    between atoms: C1'_386  and  N9_387
REMARK  149  A    between atoms: P_397  and  OP2_399
REMARK  150  A    between atoms: P_397  and  O5'_400
REMARK  151  A    between atoms: O5'_400  and  C5'_401
REMARK  152  A    between atoms: C5'_401  and  C4'_402
REMARK  153  A    between atoms: C3'_404  and  O3'_405
REMARK  154  A    between atoms: O3'_405  and  P_419
REMARK  155  A    between atoms: C2'_406  and  O2'_407
REMARK  156  A    between atoms: C1'_408  and  N9_409
REMARK  157  A    between atoms: P_419  and  OP2_421
REMARK  158  A    between atoms: P_419  and  O5'_422
REMARK  159  A    between atoms: O5'_422  and  C5'_423
REMARK  160  A    between atoms: C5'_423  and  C4'_424
REMARK  161  A    between atoms: C3'_426  and  O3'_427
REMARK  162  A    between atoms: O3'_427  and  P_441
REMARK  163  A    between atoms: C2'_428  and  O2'_429
REMARK  164  A    between atoms: C1'_430  and  N9_431
REMARK  165  A    between atoms: P_441  and  OP2_443
REMARK  166  A    between atoms: P_441  and  O5'_444
REMARK  167  A    between atoms: O5'_444  and  C5'_445
REMARK  168  A    between atoms: C5'_445  and  C4'_446
REMARK  169  A    between atoms: C3'_448  and  O3'_449
REMARK  170  A    between atoms: O3'_449  and  P_461
REMARK  171  A    between atoms: C2'_450  and  O2'_451
REMARK  172  A    between atoms: C1'_452  and  N1_453
REMARK  173  A    between atoms: P_461  and  OP1_462
REMARK  174  A    between atoms: P_461  and  O5'_464
REMARK  175  A    between atoms: O5'_464  and  C5'_465
REMARK  176  A    between atoms: C5'_465  and  C4'_466
REMARK  177  A    between atoms: C3'_468  and  O3'_469
REMARK  178  A    between atoms: O3'_469  and  P_481
REMARK  179  A    between atoms: C2'_470  and  O2'_471
REMARK  180  A    between atoms: C1'_472  and  N1_473
REMARK  181  A    between atoms: P_481  and  OP1_482
REMARK  182  A    between atoms: P_481  and  O5'_484
REMARK  183  A    between atoms: O5'_484  and  C5'_485
REMARK  184  A    between atoms: C5'_485  and  C4'_486
REMARK  185  A    between atoms: C3'_488  and  O3'_489
REMARK  186  A    between atoms: O3'_489  and  P_501
REMARK  187  A    between atoms: C2'_490  and  O2'_491
REMARK  188  A    between atoms: C1'_492  and  N1_493
REMARK  189  A    between atoms: P_501  and  OP1_502
REMARK  190  A    between atoms: P_501  and  O5'_504
REMARK  191  A    between atoms: O5'_504  and  C5'_505
REMARK  192  A    between atoms: C5'_505  and  C4'_506
REMARK  193  A    between atoms: C3'_508  and  O3'_509
REMARK  194  A    between atoms: O3'_509  and  P_521
REMARK  195  A    between atoms: C2'_510  and  O2'_511
REMARK  196  A    between atoms: C1'_512  and  N1_513
REMARK  197  A    between atoms: P_521  and  OP1_522
REMARK  198  A    between atoms: P_521  and  O5'_524
REMARK  199  A    between atoms: O5'_524  and  C5'_525
REMARK  200  A    between atoms: C5'_525  and  C4'_526
REMARK  201  A    between atoms: C3'_528  and  O3'_529
REMARK  202  A    between atoms: O3'_529  and  P_541
REMARK  203  A    between atoms: C2'_530  and  O2'_531
REMARK  204  A    between atoms: C1'_532  and  N1_533
REMARK  205  A    between atoms: P_541  and  OP2_543
REMARK  206  A    between atoms: P_541  and  O5'_544
REMARK  207  A    between atoms: O5'_544  and  C5'_545
REMARK  208  A    between atoms: C5'_545  and  C4'_546
REMARK  209  A    between atoms: C3'_548  and  O3'_549
REMARK  210  A    between atoms: O3'_549  and  P_561
REMARK  211  A    between atoms: C2'_550  and  O2'_551
REMARK  212  A    between atoms: C1'_552  and  N1_553
REMARK  213  A    between atoms: P_561  and  OP2_563
REMARK  214  A    between atoms: P_561  and  O5'_564
REMARK  215  A    between atoms: O5'_564  and  C5'_565
REMARK  216  A    between atoms: C5'_565  and  C4'_566
REMARK  217  A    between atoms: C3'_568  and  O3'_569
REMARK  218  A    between atoms: O3'_569  and  P_581
REMARK  219  A    between atoms: C2'_570  and  O2'_571
REMARK  220  A    between atoms: C1'_572  and  N1_573
REMARK  221  A    between atoms: P_581  and  OP2_583
REMARK  222  A    between atoms: P_581  and  O5'_584
REMARK  223  A    between atoms: O5'_584  and  C5'_585
REMARK  224  A    between atoms: C5'_585  and  C4'_586
REMARK  225  A    between atoms: C3'_588  and  O3'_589
REMARK  226  A    between atoms: O3'_589  and  P_603
REMARK  227  A    between atoms: C2'_590  and  O2'_591
REMARK  228  A    between atoms: C1'_592  and  N9_593
REMARK  229  A    between atoms: P_603  and  OP2_605
REMARK  230  A    between atoms: P_603  and  O5'_606
REMARK  231  A    between atoms: O5'_606  and  C5'_607
REMARK  232  A    between atoms: C5'_607  and  C4'_608
REMARK  233  A    between atoms: C3'_610  and  O3'_611
REMARK  234  A    between atoms: O3'_611  and  P_625
REMARK  235  A    between atoms: C2'_612  and  O2'_613
REMARK  236  A    between atoms: C1'_614  and  N9_615
REMARK  237  A    between atoms: P_625  and  OP2_627
REMARK  238  A    between atoms: P_625  and  O5'_628
REMARK  239  A    between atoms: O5'_628  and  C5'_629
REMARK  240  A    between atoms: C5'_629  and  C4'_630
REMARK  241  A    between atoms: C3'_632  and  O3'_633
REMARK  242  A    between atoms: O3'_633  and  P_647
REMARK  243  A    between atoms: C2'_634  and  O2'_635
REMARK  244  A    between atoms: C1'_636  and  N9_637
REMARK  245  A    between atoms: P_647  and  OP2_649
REMARK  246  A    between atoms: P_647  and  O5'_650
REMARK  247  A    between atoms: O5'_650  and  C5'_651
REMARK  248  A    between atoms: C5'_651  and  C4'_652
REMARK  249  A    between atoms: C3'_654  and  O3'_655
REMARK  250  A    between atoms: O3'_655  and  P_669
REMARK  251  A    between atoms: C2'_656  and  O2'_657
REMARK  252  A    between atoms: C1'_658  and  N9_659
REMARK  253  A    between atoms: C6_663  and  N6_664
REMARK  254  A    between atoms: P_669  and  OP1_670
REMARK  255  A    between atoms: P_669  and  O5'_672
REMARK  256  A    between atoms: O5'_672  and  C5'_673
REMARK  257  A    between atoms: C5'_673  and  C4'_674
REMARK  258  A    between atoms: C3'_676  and  O3'_677
REMARK  259  A    between atoms: O3'_677  and  P_689
REMARK  260  A    between atoms: C2'_678  and  O2'_679
REMARK  261  A    between atoms: C1'_680  and  N1_681
REMARK  262  A    between atoms: P_689  and  OP1_690
REMARK  263  A    between atoms: P_689  and  O5'_692
REMARK  264  A    between atoms: O5'_692  and  C5'_693
REMARK  265  A    between atoms: C5'_693  and  C4'_694
REMARK  266  A    between atoms: C3'_696  and  O3'_697
REMARK  267  A    between atoms: O3'_697  and  P_711
REMARK  268  A    between atoms: C2'_698  and  O2'_699
REMARK  269  A    between atoms: C1'_700  and  N9_701
REMARK  270  A    between atoms: C6_705  and  N6_706
REMARK  271  A    between atoms: P_711  and  OP1_712
REMARK  272  A    between atoms: P_711  and  O5'_714
REMARK  273  A    between atoms: O5'_714  and  C5'_715
REMARK  274  A    between atoms: C5'_715  and  C4'_716
REMARK  275  A    between atoms: C3'_718  and  O3'_719
REMARK  276  A    between atoms: O3'_719  and  P_733
REMARK  277  A    between atoms: C2'_720  and  O2'_721
REMARK  278  A    between atoms: C1'_722  and  N9_723
REMARK  279  A    between atoms: C6_727  and  N6_728
REMARK  280  A    between atoms: P_733  and  OP1_734
REMARK  281  A    between atoms: P_733  and  O5'_736
REMARK  282  A    between atoms: O5'_736  and  C5'_737
REMARK  283  A    between atoms: C5'_737  and  C4'_738
REMARK  284  A    between atoms: C3'_740  and  O3'_741
REMARK  285  A    between atoms: O3'_741  and  P_753
REMARK  286  A    between atoms: C2'_742  and  O2'_743
REMARK  287  A    between atoms: C1'_744  and  N1_745
REMARK  288  A    between atoms: P_753  and  OP2_755
REMARK  289  A    between atoms: P_753  and  O5'_756
REMARK  290  A    between atoms: O5'_756  and  C5'_757
REMARK  291  A    between atoms: C5'_757  and  C4'_758
REMARK  292  A    between atoms: C3'_760  and  O3'_761
REMARK  293  A    between atoms: O3'_761  and  P_775
REMARK  294  A    between atoms: C2'_762  and  O2'_763
REMARK  295  A    between atoms: C1'_764  and  N9_765
REMARK  296  A    between atoms: P_775  and  OP2_777
REMARK  297  A    between atoms: P_775  and  O5'_778
REMARK  298  A    between atoms: O5'_778  and  C5'_779
REMARK  299  A    between atoms: C5'_779  and  C4'_780
REMARK  300  A    between atoms: C3'_782  and  O3'_783
REMARK  301  A    between atoms: O3'_783  and  P_795
REMARK  302  A    between atoms: C2'_784  and  O2'_785
REMARK  303  A    between atoms: C1'_786  and  N1_787
REMARK  304  A    between atoms: P_795  and  OP2_797
REMARK  305  A    between atoms: P_795  and  O5'_798
REMARK  306  A    between atoms: O5'_798  and  C5'_799
REMARK  307  A    between atoms: C5'_799  and  C4'_800
REMARK  308  A    between atoms: C3'_802  and  O3'_803
REMARK  309  A    between atoms: O3'_803  and  P_815
REMARK  310  A    between atoms: C2'_804  and  O2'_805
REMARK  311  A    between atoms: C1'_806  and  N1_807
REMARK  312  A    between atoms: P_815  and  OP1_816
REMARK  313  A    between atoms: P_815  and  O5'_818
REMARK  314  A    between atoms: O5'_818  and  C5'_819
REMARK  315  A    between atoms: C5'_819  and  C4'_820
REMARK  316  A    between atoms: C3'_822  and  O3'_823
REMARK  317  A    between atoms: O3'_823  and  P_835
REMARK  318  A    between atoms: C2'_824  and  O2'_825
REMARK  319  A    between atoms: C1'_826  and  N1_827
REMARK  320  A    between atoms: P_835  and  OP1_836
REMARK  321  A    between atoms: P_835  and  O5'_838
REMARK  322  A    between atoms: O5'_838  and  C5'_839
REMARK  323  A    between atoms: C5'_839  and  C4'_840
REMARK  324  A    between atoms: C3'_842  and  O3'_843
REMARK  325  A    between atoms: O3'_843  and  P_855
REMARK  326  A    between atoms: C2'_844  and  O2'_845
REMARK  327  A    between atoms: C1'_846  and  N1_847
REMARK  328  A    between atoms: P_855  and  OP1_856
REMARK  329  A    between atoms: P_855  and  O5'_858
REMARK  330  A    between atoms: O5'_858  and  C5'_859
REMARK  331  A    between atoms: C5'_859  and  C4'_860
REMARK  332  A    between atoms: C3'_862  and  O3'_863
REMARK  333  A    between atoms: O3'_863  and  P_875
REMARK  334  A    between atoms: C2'_864  and  O2'_865
REMARK  335  A    between atoms: C1'_866  and  N1_867
REMARK  336  A    between atoms: P_875  and  OP1_876
REMARK  337  A    between atoms: P_875  and  O5'_878
REMARK  338  A    between atoms: O5'_878  and  C5'_879
REMARK  339  A    between atoms: C5'_879  and  C4'_880
REMARK  340  A    between atoms: C3'_882  and  O3'_883
REMARK  341  A    between atoms: O3'_883  and  P_897
REMARK  342  A    between atoms: C2'_884  and  O2'_885
REMARK  343  A    between atoms: C1'_886  and  N9_887
REMARK  344  A    between atoms: P_897  and  OP2_899
REMARK  345  A    between atoms: P_897  and  O5'_900
REMARK  346  A    between atoms: O5'_900  and  C5'_901
REMARK  347  A    between atoms: C5'_901  and  C4'_902
REMARK  348  A    between atoms: C3'_904  and  O3'_905
REMARK  349  A    between atoms: O3'_905  and  P_917
REMARK  350  A    between atoms: C2'_906  and  O2'_907
REMARK  351  A    between atoms: C1'_908  and  N1_909
REMARK  352  A    between atoms: P_917  and  OP2_919
REMARK  353  A    between atoms: P_917  and  O5'_920
REMARK  354  A    between atoms: O5'_920  and  C5'_921
REMARK  355  A    between atoms: C5'_921  and  C4'_922
REMARK  356  A    between atoms: C3'_924  and  O3'_925
REMARK  357  A    between atoms: O3'_925  and  P_937
REMARK  358  A    between atoms: C2'_926  and  O2'_927
REMARK  359  A    between atoms: C1'_928  and  N1_929
REMARK  360  A    between atoms: P_937  and  OP2_939
REMARK  361  A    between atoms: P_937  and  O5'_940
REMARK  362  A    between atoms: O5'_940  and  C5'_941
REMARK  363  A    between atoms: C5'_941  and  C4'_942
REMARK  364  A    between atoms: C3'_944  and  O3'_945
REMARK  365  A    between atoms: O3'_945  and  P_957
REMARK  366  A    between atoms: C2'_946  and  O2'_947
REMARK  367  A    between atoms: C1'_948  and  N1_949
REMARK  368  A    between atoms: P_957  and  OP1_958
REMARK  369  A    between atoms: P_957  and  O5'_960
REMARK  370  A    between atoms: O5'_960  and  C5'_961
REMARK  371  A    between atoms: C5'_961  and  C4'_962
REMARK  372  A    between atoms: C3'_964  and  O3'_965
REMARK  373  A    between atoms: O3'_965  and  P_977
REMARK  374  A    between atoms: C2'_966  and  O2'_967
REMARK  375  A    between atoms: C1'_968  and  N1_969
REMARK  376  A    between atoms: P_977  and  OP1_978
REMARK  377  A    between atoms: P_977  and  O5'_980
REMARK  378  A    between atoms: O5'_980  and  C5'_981
REMARK  379  A    between atoms: C5'_981  and  C4'_982
REMARK  380  A    between atoms: C3'_984  and  O3'_985
REMARK  381  A    between atoms: O3'_985  and  P_999
REMARK  382  A    between atoms: C2'_986  and  O2'_987
REMARK  383  A    between atoms: C1'_988  and  N9_989
REMARK  384  A    between atoms: C6_993  and  N6_994
REMARK  385  A    between atoms: P_999  and  OP1_1000
REMARK  386  A    between atoms: P_999  and  O5'_1002
REMARK  387  A    between atoms: O5'_1002  and  C5'_1003
REMARK  388  A    between atoms: C5'_1003  and  C4'_1004
REMARK  389  A    between atoms: C3'_1006  and  O3'_1007
REMARK  390  A    between atoms: O3'_1007  and  P_1019
REMARK  391  A    between atoms: C2'_1008  and  O2'_1009
REMARK  392  A    between atoms: C1'_1010  and  N1_1011
REMARK  393  A    between atoms: P_1019  and  OP1_1020
REMARK  394  A    between atoms: P_1019  and  O5'_1022
REMARK  395  A    between atoms: O5'_1022  and  C5'_1023
REMARK  396  A    between atoms: C5'_1023  and  C4'_1024
REMARK  397  A    between atoms: C3'_1026  and  O3'_1027
REMARK  398  A    between atoms: O3'_1027  and  P_1039
REMARK  399  A    between atoms: C2'_1028  and  O2'_1029
REMARK  400  A    between atoms: C1'_1030  and  N1_1031
REMARK  401  A    between atoms: P_1039  and  OP1_1040
REMARK  402  A    between atoms: P_1039  and  O5'_1042
REMARK  403  A    between atoms: O5'_1042  and  C5'_1043
REMARK  404  A    between atoms: C5'_1043  and  C4'_1044
REMARK  405  A    between atoms: C3'_1046  and  O3'_1047
REMARK  406  A    between atoms: O3'_1047  and  P_1059
REMARK  407  A    between atoms: C2'_1048  and  O2'_1049
REMARK  408  A    between atoms: C1'_1050  and  N1_1051
REMARK  409  A    between atoms: P_1059  and  OP1_1060
REMARK  410  A    between atoms: P_1059  and  O5'_1062
REMARK  411  A    between atoms: O5'_1062  and  C5'_1063
REMARK  412  A    between atoms: C5'_1063  and  C4'_1064
REMARK  413  A    between atoms: C3'_1066  and  O3'_1067
REMARK  414  A    between atoms: O3'_1067  and  P_1079
REMARK  415  A    between atoms: C2'_1068  and  O2'_1069
REMARK  416  A    between atoms: C1'_1070  and  N1_1071
REMARK  417  A    between atoms: P_1079  and  OP2_1081
REMARK  418  A    between atoms: P_1079  and  O5'_1082
REMARK  419  A    between atoms: O5'_1082  and  C5'_1083
REMARK  420  A    between atoms: C5'_1083  and  C4'_1084
REMARK  421  A    between atoms: C3'_1086  and  O3'_1087
REMARK  422  A    between atoms: O3'_1087  and  P_1101
REMARK  423  A    between atoms: C2'_1088  and  O2'_1089
REMARK  424  A    between atoms: C1'_1090  and  N9_1091
REMARK  425  A    between atoms: P_1101  and  OP2_1103
REMARK  426  A    between atoms: P_1101  and  O5'_1104
REMARK  427  A    between atoms: O5'_1104  and  C5'_1105
REMARK  428  A    between atoms: C5'_1105  and  C4'_1106
REMARK  429  A    between atoms: C3'_1108  and  O3'_1109
REMARK  430  A    between atoms: O3'_1109  and  P_1123
REMARK  431  A    between atoms: C2'_1110  and  O2'_1111
REMARK  432  A    between atoms: C1'_1112  and  N9_1113
REMARK  433  A    between atoms: P_1123  and  OP2_1125
REMARK  434  A    between atoms: P_1123  and  O5'_1126
REMARK  435  A    between atoms: O5'_1126  and  C5'_1127
REMARK  436  A    between atoms: C5'_1127  and  C4'_1128
REMARK  437  A    between atoms: C3'_1130  and  O3'_1131
REMARK  438  A    between atoms: O3'_1131  and  P_1145
REMARK  439  A    between atoms: C2'_1132  and  O2'_1133
REMARK  440  A    between atoms: C1'_1134  and  N9_1135
REMARK  441  A    between atoms: P_1145  and  OP2_1147
REMARK  442  A    between atoms: P_1145  and  O5'_1148
REMARK  443  A    between atoms: O5'_1148  and  C5'_1149
REMARK  444  A    between atoms: C5'_1149  and  C4'_1150
REMARK  445  A    between atoms: C3'_1152  and  O3'_1153
REMARK  446  A    between atoms: O3'_1153  and  P_1167
REMARK  447  A    between atoms: C2'_1154  and  O2'_1155
REMARK  448  A    between atoms: C1'_1156  and  N9_1157
REMARK  449  A    between atoms: P_1167  and  OP2_1169
REMARK  450  A    between atoms: P_1167  and  O5'_1170
REMARK  451  A    between atoms: O5'_1170  and  C5'_1171
REMARK  452  A    between atoms: C5'_1171  and  C4'_1172
REMARK  453  A    between atoms: C3'_1174  and  O3'_1175
REMARK  454  A    between atoms: O3'_1175  and  P_1189
REMARK  455  A    between atoms: C2'_1176  and  O2'_1177
REMARK  456  A    between atoms: C1'_1178  and  N9_1179
REMARK  457  A    between atoms: P_1189  and  OP1_1190
REMARK  458  A    between atoms: P_1189  and  O5'_1192
REMARK  459  A    between atoms: O5'_1192  and  C5'_1193
REMARK  460  A    between atoms: C5'_1193  and  C4'_1194
REMARK  461  A    between atoms: C3'_1196  and  O3'_1197
REMARK  462  A    between atoms: O3'_1197  and  P_1209
REMARK  463  A    between atoms: C2'_1198  and  O2'_1199
REMARK  464  A    between atoms: C1'_1200  and  N1_1201
REMARK  465  A    between atoms: P_1209  and  OP1_1210
REMARK  466  A    between atoms: P_1209  and  O5'_1212
REMARK  467  A    between atoms: O5'_1212  and  C5'_1213
REMARK  468  A    between atoms: C5'_1213  and  C4'_1214
REMARK  469  A    between atoms: C3'_1216  and  O3'_1217
REMARK  470  A    between atoms: O3'_1217  and  P_1231
REMARK  471  A    between atoms: C2'_1218  and  O2'_1219
REMARK  472  A    between atoms: C1'_1220  and  N9_1221
REMARK  473  A    between atoms: P_1231  and  OP1_1232
REMARK  474  A    between atoms: P_1231  and  O5'_1234
REMARK  475  A    between atoms: O5'_1234  and  C5'_1235
REMARK  476  A    between atoms: C5'_1235  and  C4'_1236
REMARK  477  A    between atoms: C3'_1238  and  O3'_1239
REMARK  478  A    between atoms: O3'_1239  and  P_1254
REMARK  479  A    between atoms: C2'_1240  and  O2'_1241
REMARK  480  A    between atoms: C1'_1242  and  N9_1243
REMARK  481  A    between atoms: P_1254  and  OP1_1255
REMARK  482  A    between atoms: P_1254  and  O5'_1257
REMARK  483  A    between atoms: O5'_1257  and  C5'_1258
REMARK  484  A    between atoms: C5'_1258  and  C4'_1259
REMARK  485  A    between atoms: C3'_1261  and  O3'_1262
REMARK  486  A    between atoms: O3'_1262  and  P_1276
REMARK  487  A    between atoms: C2'_1263  and  O2'_1264
REMARK  488  A    between atoms: C1'_1265  and  N9_1266
REMARK  489  A    between atoms: C6_1270  and  N6_1271
REMARK  490  A    between atoms: P_1276  and  OP1_1277
REMARK  491  A    between atoms: P_1276  and  O5'_1279
REMARK  492  A    between atoms: O5'_1279  and  C5'_1280
REMARK  493  A    between atoms: C5'_1280  and  C4'_1281
REMARK  494  A    between atoms: C3'_1283  and  O3'_1284
REMARK  495  A    between atoms: O3'_1284  and  P_1296
REMARK  496  A    between atoms: C2'_1285  and  O2'_1286
REMARK  497  A    between atoms: C1'_1287  and  N1_1288
REMARK  498  A    between atoms: P_1296  and  OP1_1297
REMARK  499  A    between atoms: P_1296  and  O5'_1299
REMARK  500  A    between atoms: O5'_1299  and  C5'_1300
REMARK  501  A    between atoms: C5'_1300  and  C4'_1301
REMARK  502  A    between atoms: C3'_1303  and  O3'_1304
REMARK  503  A    between atoms: O3'_1304  and  P_1316
REMARK  504  A    between atoms: C2'_1305  and  O2'_1306
REMARK  505  A    between atoms: C1'_1307  and  N1_1308
REMARK  506  A    between atoms: P_1316  and  OP1_1317
REMARK  507  A    between atoms: P_1316  and  O5'_1319
REMARK  508  A    between atoms: O5'_1319  and  C5'_1320
REMARK  509  A    between atoms: C5'_1320  and  C4'_1321
REMARK  510  A    between atoms: C3'_1323  and  O3'_1324
REMARK  511  A    between atoms: O3'_1324  and  P_1338
REMARK  512  A    between atoms: C2'_1325  and  O2'_1326
REMARK  513  A    between atoms: C1'_1327  and  N9_1328
REMARK  514  A    between atoms: C6_1332  and  N6_1333
REMARK  515  A    between atoms: P_1338  and  OP1_1339
REMARK  516  A    between atoms: P_1338  and  O5'_1341
REMARK  517  A    between atoms: O5'_1341  and  C5'_1342
REMARK  518  A    between atoms: C5'_1342  and  C4'_1343
REMARK  519  A    between atoms: C3'_1345  and  O3'_1346
REMARK  520  A    between atoms: O3'_1346  and  P_1358
REMARK  521  A    between atoms: C2'_1347  and  O2'_1348
REMARK  522  A    between atoms: C1'_1349  and  N1_1350
REMARK  523  A    between atoms: P_1358  and  OP2_1360
REMARK  524  A    between atoms: P_1358  and  O5'_1361
REMARK  525  A    between atoms: O5'_1361  and  C5'_1362
REMARK  526  A    between atoms: C5'_1362  and  C4'_1363
REMARK  527  A    between atoms: C3'_1365  and  O3'_1366
REMARK  528  A    between atoms: O3'_1366  and  P_1380
REMARK  529  A    between atoms: C2'_1367  and  O2'_1368
REMARK  530  A    between atoms: C1'_1369  and  N9_1370
REMARK  531  A    between atoms: C6_1374  and  N6_1375
REMARK  532  A    between atoms: P_1380  and  OP2_1382
REMARK  533  A    between atoms: P_1380  and  O5'_1383
REMARK  534  A    between atoms: O5'_1383  and  C5'_1384
REMARK  535  A    between atoms: C5'_1384  and  C4'_1385
REMARK  536  A    between atoms: C3'_1387  and  O3'_1388
REMARK  537  A    between atoms: O3'_1388  and  P_1402
REMARK  538  A    between atoms: C2'_1389  and  O2'_1390
REMARK  539  A    between atoms: C1'_1391  and  N9_1392
REMARK  540  A    between atoms: P_1402  and  OP2_1404
REMARK  541  A    between atoms: P_1402  and  O5'_1405
REMARK  542  A    between atoms: O5'_1405  and  C5'_1406
REMARK  543  A    between atoms: C5'_1406  and  C4'_1407
REMARK  544  A    between atoms: C3'_1409  and  O3'_1410
REMARK  545  A    between atoms: O3'_1410  and  P_1424
REMARK  546  A    between atoms: C2'_1411  and  O2'_1412
REMARK  547  A    between atoms: C1'_1413  and  N9_1414
REMARK  548  A    between atoms: P_1424  and  OP2_1426
REMARK  549  A    between atoms: P_1424  and  O5'_1427
REMARK  550  A    between atoms: O5'_1427  and  C5'_1428
REMARK  551  A    between atoms: C5'_1428  and  C4'_1429
REMARK  552  A    between atoms: C3'_1431  and  O3'_1432
REMARK  553  A    between atoms: O3'_1432  and  P_1446
REMARK  554  A    between atoms: C2'_1433  and  O2'_1434
REMARK  555  A    between atoms: C1'_1435  and  N9_1436
REMARK  556  A    between atoms: P_1446  and  OP2_1448
REMARK  557  A    between atoms: P_1446  and  O5'_1449
REMARK  558  A    between atoms: O5'_1449  and  C5'_1450
REMARK  559  A    between atoms: C5'_1450  and  C4'_1451
REMARK  560  A    between atoms: C3'_1453  and  O3'_1454
REMARK  561  A    between atoms: O3'_1454  and  P_1468
REMARK  562  A    between atoms: C2'_1455  and  O2'_1456
REMARK  563  A    between atoms: C1'_1457  and  N9_1458
REMARK  564  A    between atoms: P_1468  and  OP2_1470
REMARK  565  A    between atoms: P_1468  and  O5'_1471
REMARK  566  A    between atoms: O5'_1471  and  C5'_1472
REMARK  567  A    between atoms: C5'_1472  and  C4'_1473
REMARK  568  A    between atoms: C3'_1475  and  O3'_1476
REMARK  569  A    between atoms: O3'_1476  and  P_1488
REMARK  570  A    between atoms: C2'_1477  and  O2'_1478
REMARK  571  A    between atoms: C1'_1479  and  N1_1480
REMARK  572  A    between atoms: P_1488  and  OP1_1489
REMARK  573  A    between atoms: P_1488  and  O5'_1491
REMARK  574  A    between atoms: O5'_1491  and  C5'_1492
REMARK  575  A    between atoms: C5'_1492  and  C4'_1493
REMARK  576  A    between atoms: C3'_1495  and  O3'_1496
REMARK  577  A    between atoms: O3'_1496  and  P_1508
REMARK  578  A    between atoms: C2'_1497  and  O2'_1498
REMARK  579  A    between atoms: C1'_1499  and  N1_1500
REMARK  580  A    between atoms: P_1508  and  OP2_1510
REMARK  581  A    between atoms: P_1508  and  O5'_1511
REMARK  582  A    between atoms: O5'_1511  and  C5'_1512
REMARK  583  A    between atoms: C5'_1512  and  C4'_1513
REMARK  584  A    between atoms: C3'_1515  and  O3'_1516
REMARK  585  A    between atoms: O3'_1516  and  P_1528
REMARK  586  A    between atoms: C2'_1517  and  O2'_1518
REMARK  587  A    between atoms: C1'_1519  and  N1_1520
REMARK  588  A    between atoms: P_1528  and  OP2_1530
REMARK  589  A    between atoms: P_1528  and  O5'_1531
REMARK  590  A    between atoms: O5'_1531  and  C5'_1532
REMARK  591  A    between atoms: C5'_1532  and  C4'_1533
REMARK  592  A    between atoms: C3'_1535  and  O3'_1536
REMARK  593  A    between atoms: O3'_1536  and  P_1548
REMARK  594  A    between atoms: C2'_1537  and  O2'_1538
REMARK  595  A    between atoms: C1'_1539  and  N1_1540
REMARK  596  A    between atoms: P_1548  and  OP2_1550
REMARK  597  A    between atoms: P_1548  and  O5'_1551
REMARK  598  A    between atoms: O5'_1551  and  C5'_1552
REMARK  599  A    between atoms: C5'_1552  and  C4'_1553
REMARK  600  A    between atoms: C3'_1555  and  O3'_1556
REMARK  601  A    between atoms: O3'_1556  and  P_1568
REMARK  602  A    between atoms: C2'_1557  and  O2'_1558
REMARK  603  A    between atoms: C1'_1559  and  N1_1560
REMARK  604  A    between atoms: P_1568  and  OP1_1569
REMARK  605  A    between atoms: P_1568  and  O5'_1571
REMARK  606  A    between atoms: O5'_1571  and  C5'_1572
REMARK  607  A    between atoms: C5'_1572  and  C4'_1573
REMARK  608  A    between atoms: C3'_1575  and  O3'_1576
REMARK  609  A    between atoms: C2'_1577  and  O2'_1578
REMARK  610  A    between atoms: C1'_1579  and  N9_1580
REMARK  611  A    between atoms: C6_1584  and  N6_1585
REMARK                            x       y       z     vdW  Elec       q    Type
REMARK                         _______ _______ _______ _____ _____    ______ ____
ROOT
ATOM      1  P   U   B  39      37.721 -33.540  -8.995  0.00  0.00    +0.000 P 
ATOM      2  OP1 U   B  39      37.924 -34.208 -10.306  0.00  0.00    +0.000 OA
ENDROOT
BRANCH   1   3
ATOM      3  OP2 U   B  39      38.406 -34.053  -7.796  0.00  0.00    +0.000 OA
ATOM      4  H   U   B  39      39.362 -34.084  -7.958  0.00  0.00    +0.000 HD
ENDBRANCH   1   3
BRANCH   1   5
ATOM      5  O5' U   B  39      38.104 -32.000  -9.197  0.00  0.00    +0.000 OA
BRANCH   5   6
ATOM      6  C5' U   B  39      38.423 -31.149  -8.135  0.00  0.00    +0.000 C 
BRANCH   6   7
ATOM      7  C4' U   B  39      39.857 -30.688  -8.194  0.00  0.00    +0.000 C 
ATOM      8  O4' U   B  39      40.734 -31.844  -8.132  0.00  0.00    +0.000 OA
ATOM      9  C3' U   B  39      40.303 -29.949  -9.436  0.00  0.00    +0.000 C 
ATOM     10  C2' U   B  39      41.817 -30.131  -9.399  0.00  0.00    +0.000 C 
ATOM     11  C1' U   B  39      41.934 -31.552  -8.824  0.00  0.00    +0.000 C 
BRANCH  11  12
ATOM     12  N1  U   B  39      42.170 -32.578  -9.861  0.00  0.00    +0.000 N 
ATOM     13  C2  U   B  39      43.481 -32.852 -10.207  0.00  0.00    +0.000 A 
ATOM     14  O2  U   B  39      44.435 -32.291  -9.696  0.00  0.00    +0.000 OA
ATOM     15  N3  U   B  39      43.643 -33.808 -11.175  0.00  0.00    +0.000 N 
ATOM     16  C4  U   B  39      42.651 -34.509 -11.820  0.00  0.00    +0.000 A 
ATOM     17  O4  U   B  39      42.959 -35.344 -12.671  0.00  0.00    +0.000 OA
ATOM     18  C5  U   B  39      41.326 -34.170 -11.413  0.00  0.00    +0.000 A 
ATOM     19  C6  U   B  39      41.136 -33.240 -10.468  0.00  0.00    +0.000 A 
ATOM     20  H   U   B  39      44.569 -34.015 -11.437  0.00  0.00    +0.000 HD
ENDBRANCH  11  12
BRANCH  10  21
ATOM     21  O2' U   B  39      42.431 -29.223  -8.515  0.00  0.00    +0.000 OA
ATOM     22  H   U   B  39      42.044 -29.320  -7.631  0.00  0.00    +0.000 HD
ENDBRANCH  10  21
BRANCH   9  23
ATOM     23  O3' U   B  39      39.911 -28.592  -9.434  0.00  0.00    +0.000 OA
BRANCH  23  24
ATOM     24  P   C   B  40      39.830 -27.790 -10.788  0.00  0.00    +0.000 P 
ATOM     25  OP2 C   B  40      40.974 -28.122 -11.658  0.00  0.00    +0.000 OA
BRANCH  24  26
ATOM     26  OP1 C   B  40      38.442 -27.928 -11.319  0.00  0.00    +0.000 OA
ATOM     27  H   C   B  40      38.366 -27.442 -12.155  0.00  0.00    +0.000 HD
ENDBRANCH  24  26
BRANCH  24  28
ATOM     28  O5' C   B  40      40.024 -26.296 -10.271  0.00  0.00    +0.000 OA
BRANCH  28  29
ATOM     29  C5' C   B  40      41.273 -25.844  -9.773  0.00  0.00    +0.000 C 
BRANCH  29  30
ATOM     30  C4' C   B  40      41.388 -24.352  -9.950  0.00  0.00    +0.000 C 
ATOM     31  O4' C   B  40      41.269 -24.023 -11.359  0.00  0.00    +0.000 OA
ATOM     32  C3' C   B  40      40.320 -23.520  -9.275  0.00  0.00    +0.000 C 
ATOM     33  C2' C   B  40      40.341 -22.239 -10.095  0.00  0.00    +0.000 C 
ATOM     34  C1' C   B  40      40.582 -22.791 -11.500  0.00  0.00    +0.000 C 
BRANCH  34  35
ATOM     35  N1  C   B  40      39.328 -23.019 -12.247  0.00  0.00    +0.000 N 
ATOM     36  C2  C   B  40      38.604 -21.915 -12.719  0.00  0.00    +0.000 A 
ATOM     37  O2  C   B  40      39.028 -20.768 -12.503  0.00  0.00    +0.000 OA
ATOM     38  N3  C   B  40      37.456 -22.121 -13.405  0.00  0.00    +0.000 NA
ATOM     39  C4  C   B  40      37.026 -23.366 -13.629  0.00  0.00    +0.000 A 
ATOM     40  N4  C   B  40      35.884 -23.518 -14.312  0.00  0.00    +0.000 N 
ATOM     41  C5  C   B  40      37.741 -24.503 -13.166  0.00  0.00    +0.000 A 
ATOM     42  C6  C   B  40      38.880 -24.290 -12.486  0.00  0.00    +0.000 A 
ATOM     43  H   C   B  40      35.392 -22.727 -14.631  0.00  0.00    +0.000 HD
ATOM     44  H   C   B  40      35.536 -24.421 -14.495  0.00  0.00    +0.000 HD
ENDBRANCH  34  35
BRANCH  33  45
ATOM     45  O2' C   B  40      41.406 -21.397  -9.731  0.00  0.00    +0.000 OA
ATOM     46  H   C   B  40      42.243 -21.879  -9.818  0.00  0.00    +0.000 HD
ENDBRANCH  33  45
BRANCH  32  47
ATOM     47  O3' C   B  40      40.585 -23.306  -7.891  0.00  0.00    +0.000 OA
BRANCH  47  48
ATOM     48  P   U   B  41      39.409 -23.459  -6.819  0.00  0.00    +0.000 P 
ATOM     49  OP2 U   B  41      38.721 -24.753  -7.054  0.00  0.00    +0.000 OA
BRANCH  48  50
ATOM     50  OP1 U   B  41      39.977 -23.158  -5.482  0.00  0.00    +0.000 OA
ATOM     51  H   U   B  41      40.389 -22.280  -5.496  0.00  0.00    +0.000 HD
ENDBRANCH  48  50
BRANCH  48  52
ATOM     52  O5' U   B  41      38.397 -22.290  -7.197  0.00  0.00    +0.000 OA
BRANCH  52  53
ATOM     53  C5' U   B  41      38.773 -20.925  -7.062  0.00  0.00    +0.000 C 
BRANCH  53  54
ATOM     54  C4' U   B  41      37.736 -20.019  -7.675  0.00  0.00    +0.000 C 
ATOM     55  O4' U   B  41      37.606 -20.309  -9.093  0.00  0.00    +0.000 OA
ATOM     56  C3' U   B  41      36.328 -20.173  -7.141  0.00  0.00    +0.000 C 
ATOM     57  C2' U   B  41      35.490 -19.609  -8.278  0.00  0.00    +0.000 C 
ATOM     58  C1' U   B  41      36.263 -20.117  -9.496  0.00  0.00    +0.000 C 
BRANCH  58  59
ATOM     59  N1  U   B  41      35.729 -21.397 -10.012  0.00  0.00    +0.000 N 
ATOM     60  C2  U   B  41      34.544 -21.355 -10.729  0.00  0.00    +0.000 A 
ATOM     61  O2  U   B  41      33.934 -20.325 -10.947  0.00  0.00    +0.000 OA
ATOM     62  N3  U   B  41      34.095 -22.572 -11.183  0.00  0.00    +0.000 N 
ATOM     63  C4  U   B  41      34.696 -23.798 -11.002  0.00  0.00    +0.000 A 
ATOM     64  O4  U   B  41      34.166 -24.807 -11.475  0.00  0.00    +0.000 OA
ATOM     65  C5  U   B  41      35.915 -23.758 -10.256  0.00  0.00    +0.000 A 
ATOM     66  C6  U   B  41      36.380 -22.588  -9.800  0.00  0.00    +0.000 A 
ATOM     67  H   U   B  41      33.253 -22.567 -11.693  0.00  0.00    +0.000 HD
ENDBRANCH  58  59
BRANCH  57  68
ATOM     68  O2' U   B  41      35.486 -18.195  -8.289  0.00  0.00    +0.000 OA
ATOM     69  H   U   B  41      36.398 -17.869  -8.339  0.00  0.00    +0.000 HD
ENDBRANCH  57  68
BRANCH  56  70
ATOM     70  O3' U   B  41      36.135 -19.489  -5.908  0.00  0.00    +0.000 OA
BRANCH  70  71
ATOM     71  P   U   B  42      35.169 -20.089  -4.791  0.00  0.00    +0.000 P 
ATOM     72  OP2 U   B  42      35.421 -21.549  -4.692  0.00  0.00    +0.000 OA
BRANCH  71  73
ATOM     73  OP1 U   B  42      35.277 -19.239  -3.585  0.00  0.00    +0.000 OA
ATOM     74  H   U   B  42      35.083 -18.318  -3.820  0.00  0.00    +0.000 HD
ENDBRANCH  71  73
BRANCH  71  75
ATOM     75  O5' U   B  42      33.713 -19.881  -5.410  0.00  0.00    +0.000 OA
BRANCH  75  76
ATOM     76  C5' U   B  42      33.188 -18.575  -5.629  0.00  0.00    +0.000 C 
BRANCH  76  77
ATOM     77  C4' U   B  42      31.920 -18.625  -6.444  0.00  0.00    +0.000 C 
ATOM     78  O4' U   B  42      32.186 -19.230  -7.742  0.00  0.00    +0.000 OA
ATOM     79  C3' U   B  42      30.796 -19.467  -5.881  0.00  0.00    +0.000 C 
ATOM     80  C2' U   B  42      29.954 -19.741  -7.121  0.00  0.00    +0.000 C 
ATOM     81  C1' U   B  42      31.042 -19.937  -8.180  0.00  0.00    +0.000 C 
BRANCH  81  82
ATOM     82  N1  U   B  42      31.391 -21.363  -8.366  0.00  0.00    +0.000 N 
ATOM     83  C2  U   B  42      30.526 -22.137  -9.125  0.00  0.00    +0.000 A 
ATOM     84  O2  U   B  42      29.513 -21.693  -9.638  0.00  0.00    +0.000 OA
ATOM     85  N3  U   B  42      30.891 -23.454  -9.265  0.00  0.00    +0.000 N 
ATOM     86  C4  U   B  42      32.008 -24.065  -8.735  0.00  0.00    +0.000 A 
ATOM     87  O4  U   B  42      32.198 -25.264  -8.951  0.00  0.00    +0.000 OA
ATOM     88  C5  U   B  42      32.851 -23.203  -7.963  0.00  0.00    +0.000 A 
ATOM     89  C6  U   B  42      32.521 -21.913  -7.810  0.00  0.00    +0.000 A 
ATOM     90  H   U   B  42      30.291 -24.022  -9.801  0.00  0.00    +0.000 HD
ENDBRANCH  81  82
BRANCH  80  91
ATOM     91  O2' U   B  42      29.157 -18.629  -7.477  0.00  0.00    +0.000 OA
ATOM     92  H   U   B  42      29.724 -17.853  -7.606  0.00  0.00    +0.000 HD
ENDBRANCH  80  91
BRANCH  79  93
ATOM     93  O3' U   B  42      30.070 -18.812  -4.843  0.00  0.00    +0.000 OA
BRANCH  93  94
ATOM     94  P   A   B  43      29.580 -19.619  -3.557  0.00  0.00    +0.000 P 
ATOM     95  OP2 A   B  43      30.744 -20.347  -2.993  0.00  0.00    +0.000 OA
BRANCH  94  96
ATOM     96  OP1 A   B  43      28.810 -18.688  -2.703  0.00  0.00    +0.000 OA
ATOM     97  H   A   B  43      28.088 -18.297  -3.220  0.00  0.00    +0.000 HD
ENDBRANCH  94  96
BRANCH  94  98
ATOM     98  O5' A   B  43      28.572 -20.704  -4.150  0.00  0.00    +0.000 OA
BRANCH  98  99
ATOM     99  C5' A   B  43      27.317 -20.310  -4.698  0.00  0.00    +0.000 C 
BRANCH  99 100
ATOM    100  C4' A   B  43      26.721 -21.411  -5.541  0.00  0.00    +0.000 C 
ATOM    101  O4' A   B  43      27.686 -21.846  -6.537  0.00  0.00    +0.000 OA
ATOM    102  C3' A   B  43      26.352 -22.687  -4.811  0.00  0.00    +0.000 C 
ATOM    103  C2' A   B  43      26.351 -23.709  -5.937  0.00  0.00    +0.000 C 
ATOM    104  C1' A   B  43      27.538 -23.233  -6.771  0.00  0.00    +0.000 C 
BRANCH 104 105
ATOM    105  N9  A   B  43      28.779 -23.918  -6.389  0.00  0.00    +0.000 N 
ATOM    106  C8  A   B  43      29.832 -23.418  -5.666  0.00  0.00    +0.000 A 
ATOM    107  N7  A   B  43      30.799 -24.286  -5.482  0.00  0.00    +0.000 NA
ATOM    108  C5  A   B  43      30.353 -25.429  -6.127  0.00  0.00    +0.000 A 
ATOM    109  C6  A   B  43      30.918 -26.702  -6.299  0.00  0.00    +0.000 A 
ATOM    110  N6  A   B  43      32.111 -27.052  -5.807  0.00  0.00    +0.000 N 
ATOM    111  N1  A   B  43      30.213 -27.618  -6.994  0.00  0.00    +0.000 NA
ATOM    112  C2  A   B  43      29.019 -27.268  -7.482  0.00  0.00    +0.000 A 
ATOM    113  N3  A   B  43      28.382 -26.101  -7.388  0.00  0.00    +0.000 NA
ATOM    114  C4  A   B  43      29.112 -25.215  -6.689  0.00  0.00    +0.000 A 
ATOM    115  H   A   B  43      32.459 -27.960  -5.959  0.00  0.00    +0.000 HD
ATOM    116  H   A   B  43      32.642 -26.401  -5.293  0.00  0.00    +0.000 HD
ENDBRANCH 104 105
BRANCH 103 117
ATOM    117  O2' A   B  43      25.178 -23.630  -6.725  0.00  0.00    +0.000 OA
ATOM    118  H   A   B  43      25.082 -22.730  -7.073  0.00  0.00    +0.000 HD
ENDBRANCH 103 117
BRANCH 102 119
ATOM    119  O3' A   B  43      25.104 -22.598  -4.140  0.00  0.00    +0.000 OA
BRANCH 119 120
ATOM    120  P   C   B  44      24.865 -23.313  -2.744  0.00  0.00    +0.000 P 
ATOM    121  OP1 C   B  44      23.499 -22.972  -2.284  0.00  0.00    +0.000 OA
BRANCH 120 122
ATOM    122  OP2 C   B  44      26.031 -23.026  -1.867  0.00  0.00    +0.000 OA
ATOM    123  H   C   B  44      26.846 -23.307  -2.311  0.00  0.00    +0.000 HD
ENDBRANCH 120 122
BRANCH 120 124
ATOM    124  O5' C   B  44      24.902 -24.865  -3.107  0.00  0.00    +0.000 OA
BRANCH 124 125
ATOM    125  C5' C   B  44      23.938 -25.451  -3.975  0.00  0.00    +0.000 C 
BRANCH 125 126
ATOM    126  C4' C   B  44      24.364 -26.836  -4.404  0.00  0.00    +0.000 C 
ATOM    127  O4' C   B  44      25.663 -26.767  -5.060  0.00  0.00    +0.000 OA
ATOM    128  C3' C   B  44      24.560 -27.834  -3.285  0.00  0.00    +0.000 C 
ATOM    129  C2' C   B  44      25.531 -28.836  -3.900  0.00  0.00    +0.000 C 
ATOM    130  C1' C   B  44      26.424 -27.913  -4.737  0.00  0.00    +0.000 C 
BRANCH 130 131
ATOM    131  N1  C   B  44      27.643 -27.480  -4.016  0.00  0.00    +0.000 N 
ATOM    132  C2  C   B  44      28.695 -28.381  -3.854  0.00  0.00    +0.000 A 
ATOM    133  O2  C   B  44      28.589 -29.530  -4.319  0.00  0.00    +0.000 OA
ATOM    134  N3  C   B  44      29.814 -27.990  -3.197  0.00  0.00    +0.000 NA
ATOM    135  C4  C   B  44      29.903 -26.748  -2.707  0.00  0.00    +0.000 A 
ATOM    136  N4  C   B  44      31.022 -26.404  -2.065  0.00  0.00    +0.000 N 
ATOM    137  C5  C   B  44      28.847 -25.811  -2.858  0.00  0.00    +0.000 A 
ATOM    138  C6  C   B  44      27.748 -26.211  -3.513  0.00  0.00    +0.000 A 
ATOM    139  H   C   B  44      31.752 -27.057  -1.963  0.00  0.00    +0.000 HD
ATOM    140  H   C   B  44      31.118 -25.497  -1.694  0.00  0.00    +0.000 HD
ENDBRANCH 130 131
BRANCH 129 141
ATOM    141  O2' C   B  44      24.879 -29.753  -4.757  0.00  0.00    +0.000 OA
ATOM    142  H   C   B  44      24.401 -29.267  -5.447  0.00  0.00    +0.000 HD
ENDBRANCH 129 141
BRANCH 128 143
ATOM    143  O3' C   B  44      23.332 -28.429  -2.874  0.00  0.00    +0.000 OA
BRANCH 143 144
ATOM    144  P   U   B  45      23.139 -28.965  -1.390  0.00  0.00    +0.000 P 
ATOM    145  OP1 U   B  45      21.697 -29.237  -1.198  0.00  0.00    +0.000 OA
BRANCH 144 146
ATOM    146  OP2 U   B  45      23.845 -28.049  -0.463  0.00  0.00    +0.000 OA
ATOM    147  H   U   B  45      24.776 -27.979  -0.725  0.00  0.00    +0.000 HD
ENDBRANCH 144 146
BRANCH 144 148
ATOM    148  O5' U   B  45      23.915 -30.361  -1.397  0.00  0.00    +0.000 OA
BRANCH 148 149
ATOM    149  C5' U   B  45      23.534 -31.412  -2.275  0.00  0.00    +0.000 C 
BRANCH 149 150
ATOM    150  C4' U   B  45      24.372 -32.648  -2.043  0.00  0.00    +0.000 C 
ATOM    151  O4' U   B  45      25.763 -32.372  -2.358  0.00  0.00    +0.000 OA
ATOM    152  C3' U   B  45      24.411 -33.148  -0.616  0.00  0.00    +0.000 C 
ATOM    153  C2' U   B  45      25.709 -33.944  -0.579  0.00  0.00    +0.000 C 
ATOM    154  C1' U   B  45      26.607 -33.095  -1.485  0.00  0.00    +0.000 C 
BRANCH 154 155
ATOM    155  N1  U   B  45      27.442 -32.133  -0.729  0.00  0.00    +0.000 N 
ATOM    156  C2  U   B  45      28.514 -32.631  -0.002  0.00  0.00    +0.000 A 
ATOM    157  O2  U   B  45      28.793 -33.816   0.051  0.00  0.00    +0.000 OA
ATOM    158  N3  U   B  45      29.251 -31.682   0.670  0.00  0.00    +0.000 N 
ATOM    159  C4  U   B  45      29.035 -30.318   0.692  0.00  0.00    +0.000 A 
ATOM    160  O4  U   B  45      29.789 -29.599   1.345  0.00  0.00    +0.000 OA
ATOM    161  C5  U   B  45      27.917 -29.883  -0.083  0.00  0.00    +0.000 A 
ATOM    162  C6  U   B  45      27.178 -30.785  -0.752  0.00  0.00    +0.000 A 
ATOM    163  H   U   B  45      30.017 -32.012   1.193  0.00  0.00    +0.000 HD
ENDBRANCH 154 155
BRANCH 153 164
ATOM    164  O2' U   B  45      25.556 -35.225  -1.152  0.00  0.00    +0.000 OA
ATOM    165  H   U   B  45      25.226 -35.136  -2.060  0.00  0.00    +0.000 HD
ENDBRANCH 153 164
BRANCH 152 166
ATOM    166  O3' U   B  45      23.264 -33.922  -0.280  0.00  0.00    +0.000 OA
BRANCH 166 167
ATOM    167  P   U   B  46      22.566 -33.771   1.141  0.00  0.00    +0.000 P 
ATOM    168  OP1 U   B  46      21.342 -34.610   1.142  0.00  0.00    +0.000 OA
BRANCH 167 169
ATOM    169  OP2 U   B  46      22.468 -32.328   1.475  0.00  0.00    +0.000 OA
ATOM    170  H   U   B  46      21.827 -31.902   0.885  0.00  0.00    +0.000 HD
ENDBRANCH 167 169
BRANCH 167 171
ATOM    171  O5' U   B  46      23.623 -34.438   2.125  0.00  0.00    +0.000 OA
BRANCH 171 172
ATOM    172  C5' U   B  46      23.979 -35.812   2.004  0.00  0.00    +0.000 C 
BRANCH 172 173
ATOM    173  C4' U   B  46      25.180 -36.139   2.856  0.00  0.00    +0.000 C 
ATOM    174  O4' U   B  46      26.336 -35.395   2.380  0.00  0.00    +0.000 OA
ATOM    175  C3' U   B  46      25.074 -35.759   4.316  0.00  0.00    +0.000 C 
ATOM    176  C2' U   B  46      26.535 -35.660   4.733  0.00  0.00    +0.000 C 
ATOM    177  C1' U   B  46      27.163 -35.048   3.473  0.00  0.00    +0.000 C 
BRANCH 177 178
ATOM    178  N1  U   B  46      27.256 -33.572   3.552  0.00  0.00    +0.000 N 
ATOM    179  C2  U   B  46      28.298 -33.034   4.288  0.00  0.00    +0.000 A 
ATOM    180  O2  U   B  46      29.125 -33.720   4.863  0.00  0.00    +0.000 OA
ATOM    181  N3  U   B  46      28.340 -31.661   4.330  0.00  0.00    +0.000 N 
ATOM    182  C4  U   B  46      27.463 -30.788   3.722  0.00  0.00    +0.000 A 
ATOM    183  O4  U   B  46      27.632 -29.575   3.851  0.00  0.00    +0.000 OA
ATOM    184  C5  U   B  46      26.416 -31.417   2.980  0.00  0.00    +0.000 A 
ATOM    185  C6  U   B  46      26.350 -32.754   2.922  0.00  0.00    +0.000 A 
ATOM    186  H   U   B  46      29.073 -31.258   4.849  0.00  0.00    +0.000 HD
ENDBRANCH 177 178
BRANCH 176 187
ATOM    187  O2' U   B  46      27.107 -36.934   4.954  0.00  0.00    +0.000 OA
ATOM    188  H   U   B  46      27.006 -37.477   4.156  0.00  0.00    +0.000 HD
ENDBRANCH 176 187
BRANCH 175 189
ATOM    189  O3' U   B  46      24.327 -36.703   5.073  0.00  0.00    +0.000 OA
BRANCH 189 190
ATOM    190  P   U   B  47      23.481 -36.232   6.340  0.00  0.00    +0.000 P 
ATOM    191  OP2 U   B  47      22.858 -34.919   6.029  0.00  0.00    +0.000 OA
BRANCH 190 192
ATOM    192  OP1 U   B  47      22.628 -37.370   6.760  0.00  0.00    +0.000 OA
ATOM    193  H   U   B  47      21.945 -37.527   6.090  0.00  0.00    +0.000 HD
ENDBRANCH 190 192
BRANCH 190 194
ATOM    194  O5' U   B  47      24.589 -36.003   7.460  0.00  0.00    +0.000 OA
BRANCH 194 195
ATOM    195  C5' U   B  47      25.399 -37.078   7.920  0.00  0.00    +0.000 C 
BRANCH 195 196
ATOM    196  C4' U   B  47      26.473 -36.596   8.864  0.00  0.00    +0.000 C 
ATOM    197  O4' U   B  47      27.393 -35.715   8.161  0.00  0.00    +0.000 OA
ATOM    198  C3' U   B  47      26.000 -35.768  10.038  0.00  0.00    +0.000 C 
ATOM    199  C2' U   B  47      27.265 -35.017  10.431  0.00  0.00    +0.000 C 
ATOM    200  C1' U   B  47      27.888 -34.736   9.055  0.00  0.00    +0.000 C 
BRANCH 200 201
ATOM    201  N1  U   B  47      27.542 -33.393   8.541  0.00  0.00    +0.000 N 
ATOM    202  C2  U   B  47      28.259 -32.315   9.036  0.00  0.00    +0.000 A 
ATOM    203  O2  U   B  47      29.143 -32.435   9.864  0.00  0.00    +0.000 OA
ATOM    204  N3  U   B  47      27.901 -31.089   8.527  0.00  0.00    +0.000 N 
ATOM    205  C4  U   B  47      26.920 -30.836   7.593  0.00  0.00    +0.000 A 
ATOM    206  O4  U   B  47      26.714 -29.677   7.234  0.00  0.00    +0.000 OA
ATOM    207  C5  U   B  47      26.225 -31.996   7.130  0.00  0.00    +0.000 A 
ATOM    208  C6  U   B  47      26.553 -33.206   7.608  0.00  0.00    +0.000 A 
ATOM    209  H   U   B  47      28.398 -30.310   8.866  0.00  0.00    +0.000 HD
ENDBRANCH 200 201
BRANCH 199 210
ATOM    210  O2' U   B  47      28.150 -35.829  11.177  0.00  0.00    +0.000 OA
ATOM    211  H   U   B  47      28.362 -36.628  10.669  0.00  0.00    +0.000 HD
ENDBRANCH 199 210
BRANCH 198 212
ATOM    212  O3' U   B  47      25.463 -36.563  11.088  0.00  0.00    +0.000 OA
BRANCH 212 213
ATOM    213  P   A   B  48      24.328 -35.975  12.051  0.00  0.00    +0.000 P 
ATOM    214  OP2 A   B  48      23.409 -35.138  11.237  0.00  0.00    +0.000 OA
BRANCH 213 215
ATOM    215  OP1 A   B  48      23.784 -37.098  12.851  0.00  0.00    +0.000 OA
ATOM    216  H   A   B  48      23.289 -37.698  12.271  0.00  0.00    +0.000 HD
ENDBRANCH 213 215
BRANCH 213 217
ATOM    217  O5' A   B  48      25.133 -35.010  13.030  0.00  0.00    +0.000 OA
BRANCH 217 218
ATOM    218  C5' A   B  48      26.113 -35.528  13.920  0.00  0.00    +0.000 C 
BRANCH 218 219
ATOM    219  C4' A   B  48      26.883 -34.415  14.588  0.00  0.00    +0.000 C 
ATOM    220  O4' A   B  48      27.621 -33.662  13.587  0.00  0.00    +0.000 OA
ATOM    221  C3' A   B  48      26.050 -33.369  15.299  0.00  0.00    +0.000 C 
ATOM    222  C2' A   B  48      26.997 -32.177  15.336  0.00  0.00    +0.000 C 
ATOM    223  C1' A   B  48      27.690 -32.302  13.976  0.00  0.00    +0.000 C 
BRANCH 223 224
ATOM    224  N9  A   B  48      27.043 -31.487  12.935  0.00  0.00    +0.000 N 
ATOM    225  C8  A   B  48      26.176 -31.893  11.957  0.00  0.00    +0.000 A 
ATOM    226  N7  A   B  48      25.775 -30.918  11.172  0.00  0.00    +0.000 NA
ATOM    227  C5  A   B  48      26.424 -29.798  11.670  0.00  0.00    +0.000 A 
ATOM    228  C6  A   B  48      26.420 -28.450  11.280  0.00  0.00    +0.000 A 
ATOM    229  N1  A   B  48      27.174 -27.586  11.986  0.00  0.00    +0.000 NA
ATOM    230  C2  A   B  48      27.885 -28.055  13.019  0.00  0.00    +0.000 A 
ATOM    231  N3  A   B  48      27.972 -29.300  13.480  0.00  0.00    +0.000 NA
ATOM    232  C4  A   B  48      27.210 -30.133  12.755  0.00  0.00    +0.000 A 
BRANCH 228 233
ATOM    233  N6  A   B  48      25.707 -27.977  10.248  0.00  0.00    +0.000 N 
ATOM    234  H   A   B  48      25.147 -28.587   9.715  0.00  0.00    +0.000 HD
ATOM    235  H   A   B  48      25.743 -27.019  10.023  0.00  0.00    +0.000 HD
ENDBRANCH 228 233
ENDBRANCH 223 224
BRANCH 222 236
ATOM    236  O2' A   B  48      27.964 -32.304  16.359  0.00  0.00    +0.000 OA
ATOM    237  H   A   B  48      28.452 -33.134  16.242  0.00  0.00    +0.000 HD
ENDBRANCH 222 236
BRANCH 221 238
ATOM    238  O3' A   B  48      25.625 -33.792  16.587  0.00  0.00    +0.000 OA
BRANCH 238 239
ATOM    239  P   U   B  49      24.235 -33.310  17.200  0.00  0.00    +0.000 P 
ATOM    240  OP2 U   B  49      23.252 -33.214  16.088  0.00  0.00    +0.000 OA
BRANCH 239 241
ATOM    241  OP1 U   B  49      23.931 -34.150  18.379  0.00  0.00    +0.000 OA
ATOM    242  H   U   B  49      23.738 -35.055  18.090  0.00  0.00    +0.000 HD
ENDBRANCH 239 241
BRANCH 239 243
ATOM    243  O5' U   B  49      24.547 -31.833  17.712  0.00  0.00    +0.000 OA
BRANCH 243 244
ATOM    244  C5' U   B  49      25.507 -31.593  18.727  0.00  0.00    +0.000 C 
BRANCH 244 245
ATOM    245  C4' U   B  49      25.882 -30.132  18.798  0.00  0.00    +0.000 C 
ATOM    246  O4' U   B  49      26.459 -29.710  17.531  0.00  0.00    +0.000 OA
ATOM    247  C3' U   B  49      24.738 -29.166  19.022  0.00  0.00    +0.000 C 
ATOM    248  C2' U   B  49      25.315 -27.861  18.487  0.00  0.00    +0.000 C 
ATOM    249  C1' U   B  49      26.117 -28.362  17.277  0.00  0.00    +0.000 C 
BRANCH 249 250
ATOM    250  N1  U   B  49      25.349 -28.291  16.013  0.00  0.00    +0.000 N 
ATOM    251  C2  U   B  49      25.285 -27.069  15.370  0.00  0.00    +0.000 A 
ATOM    252  O2  U   B  49      25.825 -26.065  15.797  0.00  0.00    +0.000 OA
ATOM    253  N3  U   B  49      24.561 -27.061  14.201  0.00  0.00    +0.000 N 
ATOM    254  C4  U   B  49      23.909 -28.127  13.624  0.00  0.00    +0.000 A 
ATOM    255  O4  U   B  49      23.299 -27.961  12.568  0.00  0.00    +0.000 OA
ATOM    256  C5  U   B  49      24.021 -29.355  14.349  0.00  0.00    +0.000 A 
ATOM    257  C6  U   B  49      24.720 -29.393  15.491  0.00  0.00    +0.000 A 
ATOM    258  H   U   B  49      24.503 -26.201  13.726  0.00  0.00    +0.000 HD
ENDBRANCH 249 250
BRANCH 248 259
ATOM    259  O2' U   B  49      26.198 -27.256  19.404  0.00  0.00    +0.000 OA
ATOM    260  H   U   B  49      26.905 -27.880  19.631  0.00  0.00    +0.000 HD
ENDBRANCH 248 259
BRANCH 247 261
ATOM    261  O3' U   B  49      24.344 -29.091  20.385  0.00  0.00    +0.000 OA
BRANCH 261 262
ATOM    262  P   U   B  50      22.830 -28.761  20.782  0.00  0.00    +0.000 P 
ATOM    263  OP2 U   B  50      21.932 -29.461  19.828  0.00  0.00    +0.000 OA
BRANCH 262 264
ATOM    264  OP1 U   B  50      22.675 -28.987  22.236  0.00  0.00    +0.000 OA
ATOM    265  H   U   B  50      22.744 -29.936  22.425  0.00  0.00    +0.000 HD
ENDBRANCH 262 264
BRANCH 262 266
ATOM    266  O5' U   B  50      22.712 -27.196  20.512  0.00  0.00    +0.000 OA
BRANCH 266 267
ATOM    267  C5' U   B  50      23.548 -26.269  21.176  0.00  0.00    +0.000 C 
BRANCH 267 268
ATOM    268  C4' U   B  50      23.449 -24.897  20.557  0.00  0.00    +0.000 C 
ATOM    269  O4' U   B  50      23.928 -24.941  19.185  0.00  0.00    +0.000 OA
ATOM    270  C3' U   B  50      22.051 -24.332  20.444  0.00  0.00    +0.000 C 
ATOM    271  C2' U   B  50      22.200 -23.316  19.317  0.00  0.00    +0.000 C 
ATOM    272  C1' U   B  50      23.192 -24.028  18.393  0.00  0.00    +0.000 C 
BRANCH 272 273
ATOM    273  N1  U   B  50      22.534 -24.778  17.298  0.00  0.00    +0.000 N 
ATOM    274  C2  U   B  50      22.166 -24.075  16.164  0.00  0.00    +0.000 A 
ATOM    275  O2  U   B  50      22.354 -22.878  16.036  0.00  0.00    +0.000 OA
ATOM    276  N3  U   B  50      21.562 -24.825  15.181  0.00  0.00    +0.000 N 
ATOM    277  C4  U   B  50      21.299 -26.176  15.214  0.00  0.00    +0.000 A 
ATOM    278  O4  U   B  50      20.752 -26.710  14.249  0.00  0.00    +0.000 OA
ATOM    279  C5  U   B  50      21.709 -26.831  16.418  0.00  0.00    +0.000 A 
ATOM    280  C6  U   B  50      22.297 -26.127  17.392  0.00  0.00    +0.000 A 
ATOM    281  H   U   B  50      21.289 -24.344  14.367  0.00  0.00    +0.000 HD
ENDBRANCH 272 273
BRANCH 271 282
ATOM    282  O2' U   B  50      22.776 -22.106  19.765  0.00  0.00    +0.000 OA
ATOM    283  H   U   B  50      23.634 -22.290  20.179  0.00  0.00    +0.000 HD
ENDBRANCH 271 282
BRANCH 270 284
ATOM    284  O3' U   B  50      21.606 -23.767  21.667  0.00  0.00    +0.000 OA
BRANCH 284 285
ATOM    285  P   U   B  51      20.069 -23.472  21.925  0.00  0.00    +0.000 P 
ATOM    286  OP2 U   B  51      19.262 -24.414  21.114  0.00  0.00    +0.000 OA
BRANCH 285 287
ATOM    287  OP1 U   B  51      19.834 -23.387  23.388  0.00  0.00    +0.000 OA
ATOM    288  H   U   B  51      18.896 -23.207  23.555  0.00  0.00    +0.000 HD
ENDBRANCH 285 287
BRANCH 285 289
ATOM    289  O5' U   B  51      19.901 -22.012  21.316  0.00  0.00    +0.000 OA
BRANCH 289 290
ATOM    290  C5' U   B  51      18.645 -21.583  20.819  0.00  0.00    +0.000 C 
BRANCH 290 291
ATOM    291  C4' U   B  51      18.826 -20.677  19.631  0.00  0.00    +0.000 C 
ATOM    292  O4' U   B  51      19.656 -21.330  18.631  0.00  0.00    +0.000 OA
ATOM    293  C3' U   B  51      17.547 -20.339  18.893  0.00  0.00    +0.000 C 
ATOM    294  C2' U   B  51      18.043 -20.022  17.493  0.00  0.00    +0.000 C 
ATOM    295  C1' U   B  51      19.176 -21.044  17.338  0.00  0.00    +0.000 C 
BRANCH 295 296
ATOM    296  N1  U   B  51      18.746 -22.321  16.720  0.00  0.00    +0.000 N 
ATOM    297  C2  U   B  51      18.360 -22.326  15.390  0.00  0.00    +0.000 A 
ATOM    298  O2  U   B  51      18.337 -21.325  14.692  0.00  0.00    +0.000 OA
ATOM    299  N3  U   B  51      17.984 -23.552  14.896  0.00  0.00    +0.000 N 
ATOM    300  C4  U   B  51      17.964 -24.748  15.579  0.00  0.00    +0.000 A 
ATOM    301  O4  U   B  51      17.607 -25.770  15.000  0.00  0.00    +0.000 OA
ATOM    302  C5  U   B  51      18.383 -24.662  16.945  0.00  0.00    +0.000 A 
ATOM    303  C6  U   B  51      18.751 -23.484  17.453  0.00  0.00    +0.000 A 
ATOM    304  H   U   B  51      17.699 -23.578  13.954  0.00  0.00    +0.000 HD
ENDBRANCH 295 296
BRANCH 294 305
ATOM    305  O2' U   B  51      18.580 -18.720  17.399  0.00  0.00    +0.000 OA
ATOM    306  H   U   B  51      19.293 -18.617  18.048  0.00  0.00    +0.000 HD
ENDBRANCH 294 305
BRANCH 293 307
ATOM    307  O3' U   B  51      16.849 -19.271  19.517  0.00  0.00    +0.000 OA
BRANCH 307 308
ATOM    308  P   U   B  52      15.300 -19.379  19.836  0.00  0.00    +0.000 P 
ATOM    309  OP2 U   B  52      14.974 -20.799  20.115  0.00  0.00    +0.000 OA
BRANCH 308 310
ATOM    310  OP1 U   B  52      14.943 -18.336  20.828  0.00  0.00    +0.000 OA
ATOM    311  H   U   B  52      15.222 -17.467  20.498  0.00  0.00    +0.000 HD
ENDBRANCH 308 310
BRANCH 308 312
ATOM    312  O5' U   B  52      14.647 -18.980  18.442  0.00  0.00    +0.000 OA
BRANCH 312 313
ATOM    313  C5' U   B  52      14.977 -17.752  17.801  0.00  0.00    +0.000 C 
BRANCH 313 314
ATOM    314  C4' U   B  52      14.676 -17.802  16.327  0.00  0.00    +0.000 C 
ATOM    315  O4' U   B  52      15.529 -18.786  15.676  0.00  0.00    +0.000 OA
ATOM    316  C3' U   B  52      13.276 -18.232  15.951  0.00  0.00    +0.000 C 
ATOM    317  C2' U   B  52      13.461 -18.710  14.517  0.00  0.00    +0.000 C 
ATOM    318  C1' U   B  52      14.832 -19.389  14.601  0.00  0.00    +0.000 C 
BRANCH 318 319
ATOM    319  N1  U   B  52      14.732 -20.846  14.854  0.00  0.00    +0.000 N 
ATOM    320  C2  U   B  52      14.417 -21.659  13.777  0.00  0.00    +0.000 A 
ATOM    321  O2  U   B  52      14.220 -21.228  12.653  0.00  0.00    +0.000 OA
ATOM    322  N3  U   B  52      14.338 -23.002  14.064  0.00  0.00    +0.000 N 
ATOM    323  C4  U   B  52      14.541 -23.600  15.289  0.00  0.00    +0.000 A 
ATOM    324  O4  U   B  52      14.435 -24.824  15.388  0.00  0.00    +0.000 OA
ATOM    325  C5  U   B  52      14.862 -22.693  16.352  0.00  0.00    +0.000 A 
ATOM    326  C6  U   B  52      14.944 -21.381  16.102  0.00  0.00    +0.000 A 
ATOM    327  H   U   B  52      14.112 -23.599  13.315  0.00  0.00    +0.000 HD
ENDBRANCH 318 319
BRANCH 317 328
ATOM    328  O2' U   B  52      13.540 -17.630  13.608  0.00  0.00    +0.000 OA
ATOM    329  H   U   B  52      14.259 -17.036  13.874  0.00  0.00    +0.000 HD
ENDBRANCH 317 328
BRANCH 316 330
ATOM    330  O3' U   B  52      12.323 -17.184  16.084  0.00  0.00    +0.000 OA
BRANCH 330 331
ATOM    331  P   A   B  53      10.812 -17.511  16.463  0.00  0.00    +0.000 P 
ATOM    332  OP1 A   B  53      10.125 -16.229  16.754  0.00  0.00    +0.000 OA
BRANCH 331 333
ATOM    333  OP2 A   B  53      10.802 -18.600  17.471  0.00  0.00    +0.000 OA
ATOM    334  H   A   B  53      11.292 -19.363  17.127  0.00  0.00    +0.000 HD
ENDBRANCH 331 333
BRANCH 331 335
ATOM    335  O5' A   B  53      10.218 -18.095  15.103  0.00  0.00    +0.000 OA
BRANCH 335 336
ATOM    336  C5' A   B  53      10.185 -17.297  13.923  0.00  0.00    +0.000 C 
BRANCH 336 337
ATOM    337  C4' A   B  53       9.914 -18.143  12.703  0.00  0.00    +0.000 C 
ATOM    338  O4' A   B  53      10.971 -19.132  12.536  0.00  0.00    +0.000 OA
ATOM    339  C3' A   B  53       8.648 -18.971  12.738  0.00  0.00    +0.000 C 
ATOM    340  C2' A   B  53       8.949 -20.057  11.713  0.00  0.00    +0.000 C 
ATOM    341  C1' A   B  53      10.433 -20.314  11.973  0.00  0.00    +0.000 C 
BRANCH 341 342
ATOM    342  N9  A   B  53      10.650 -21.429  12.907  0.00  0.00    +0.000 N 
ATOM    343  C8  A   B  53      11.001 -21.368  14.234  0.00  0.00    +0.000 A 
ATOM    344  N7  A   B  53      11.123 -22.550  14.796  0.00  0.00    +0.000 NA
ATOM    345  C5  A   B  53      10.833 -23.443  13.775  0.00  0.00    +0.000 A 
ATOM    346  C6  A   B  53      10.787 -24.846  13.723  0.00  0.00    +0.000 A 
ATOM    347  N6  A   B  53      11.046 -25.630  14.777  0.00  0.00    +0.000 N 
ATOM    348  N1  A   B  53      10.461 -25.425  12.550  0.00  0.00    +0.000 NA
ATOM    349  C2  A   B  53      10.200 -24.640  11.498  0.00  0.00    +0.000 A 
ATOM    350  N3  A   B  53      10.211 -23.310  11.419  0.00  0.00    +0.000 NA
ATOM    351  C4  A   B  53      10.539 -22.765  12.606  0.00  0.00    +0.000 A 
ATOM    352  H   A   B  53      10.999 -26.609  14.685  0.00  0.00    +0.000 HD
ATOM    353  H   A   B  53      11.283 -25.227  15.644  0.00  0.00    +0.000 HD
ENDBRANCH 341 342
BRANCH 340 354
ATOM    354  O2' A   B  53       8.791 -19.587  10.382  0.00  0.00    +0.000 OA
ATOM    355  H   A   B  53       9.356 -18.811  10.244  0.00  0.00    +0.000 HD
ENDBRANCH 340 354
BRANCH 339 356
ATOM    356  O3' A   B  53       7.488 -18.208  12.429  0.00  0.00    +0.000 OA
BRANCH 356 357
ATOM    357  P   A   B  54       6.075 -18.608  13.039  0.00  0.00    +0.000 P 
ATOM    358  OP1 A   B  54       5.133 -17.493  12.765  0.00  0.00    +0.000 OA
BRANCH 357 359
ATOM    359  OP2 A   B  54       6.268 -19.081  14.431  0.00  0.00    +0.000 OA
ATOM    360  H   A   B  54       6.910 -19.808  14.439  0.00  0.00    +0.000 HD
ENDBRANCH 357 359
BRANCH 357 361
ATOM    361  O5' A   B  54       5.636 -19.859  12.152  0.00  0.00    +0.000 OA
BRANCH 361 362
ATOM    362  C5' A   B  54       5.468 -19.729  10.742  0.00  0.00    +0.000 C 
BRANCH 362 363
ATOM    363  C4' A   B  54       5.377 -21.087  10.085  0.00  0.00    +0.000 C 
ATOM    364  O4' A   B  54       6.603 -21.835  10.314  0.00  0.00    +0.000 OA
ATOM    365  C3' A   B  54       4.289 -21.999  10.609  0.00  0.00    +0.000 C 
ATOM    366  C2' A   B  54       4.804 -23.372  10.201  0.00  0.00    +0.000 C 
ATOM    367  C1' A   B  54       6.306 -23.212  10.433  0.00  0.00    +0.000 C 
BRANCH 367 368
ATOM    368  N9  A   B  54       6.715 -23.671  11.770  0.00  0.00    +0.000 N 
ATOM    369  C8  A   B  54       7.013 -22.911  12.874  0.00  0.00    +0.000 A 
ATOM    370  N7  A   B  54       7.351 -23.622  13.925  0.00  0.00    +0.000 NA
ATOM    371  C5  A   B  54       7.271 -24.935  13.485  0.00  0.00    +0.000 A 
ATOM    372  C6  A   B  54       7.505 -26.166  14.118  0.00  0.00    +0.000 A 
ATOM    373  N6  A   B  54       7.886 -26.274  15.397  0.00  0.00    +0.000 N 
ATOM    374  N1  A   B  54       7.332 -27.291  13.398  0.00  0.00    +0.000 NA
ATOM    375  C2  A   B  54       6.949 -27.182  12.118  0.00  0.00    +0.000 A 
ATOM    376  N3  A   B  54       6.698 -26.082  11.408  0.00  0.00    +0.000 NA
ATOM    377  C4  A   B  54       6.879 -24.979  12.158  0.00  0.00    +0.000 A 
ATOM    378  H   A   B  54       8.037 -27.163  15.792  0.00  0.00    +0.000 HD
ATOM    379  H   A   B  54       8.015 -25.464  15.942  0.00  0.00    +0.000 HD
ENDBRANCH 367 368
BRANCH 366 380
ATOM    380  O2' A   B  54       4.577 -23.635   8.823  0.00  0.00    +0.000 OA
ATOM    381  H   A   B  54       4.986 -22.936   8.289  0.00  0.00    +0.000 HD
ENDBRANCH 366 380
BRANCH 365 382
ATOM    382  O3' A   B  54       3.010 -21.688  10.068  0.00  0.00    +0.000 OA
BRANCH 382 383
ATOM    383  P   A   B  55       1.689 -21.950  10.923  0.00  0.00    +0.000 P 
ATOM    384  OP1 A   B  55       0.551 -21.318  10.205  0.00  0.00    +0.000 OA
BRANCH 383 385
ATOM    385  OP2 A   B  55       1.952 -21.592  12.340  0.00  0.00    +0.000 OA
ATOM    386  H   A   B  55       2.061 -20.631  12.416  0.00  0.00    +0.000 HD
ENDBRANCH 383 385
BRANCH 383 387
ATOM    387  O5' A   B  55       1.516 -23.530  10.840  0.00  0.00    +0.000 OA
BRANCH 387 388
ATOM    388  C5' A   B  55       1.351 -24.176   9.581  0.00  0.00    +0.000 C 
BRANCH 388 389
ATOM    389  C4' A   B  55       1.458 -25.676   9.730  0.00  0.00    +0.000 C 
ATOM    390  O4' A   B  55       2.794 -26.038  10.173  0.00  0.00    +0.000 OA
ATOM    391  C3' A   B  55       0.546 -26.294  10.766  0.00  0.00    +0.000 C 
ATOM    392  C2' A   B  55       1.255 -27.606  11.067  0.00  0.00    +0.000 C 
ATOM    393  C1' A   B  55       2.722 -27.175  11.010  0.00  0.00    +0.000 C 
BRANCH 393 394
ATOM    394  N9  A   B  55       3.254 -26.820  12.335  0.00  0.00    +0.000 N 
ATOM    395  C8  A   B  55       3.438 -25.569  12.868  0.00  0.00    +0.000 A 
ATOM    396  N7  A   B  55       3.937 -25.584  14.081  0.00  0.00    +0.000 NA
ATOM    397  C5  A   B  55       4.094 -26.933  14.365  0.00  0.00    +0.000 A 
ATOM    398  C6  A   B  55       4.578 -27.616  15.492  0.00  0.00    +0.000 A 
ATOM    399  N6  A   B  55       5.013 -26.996  16.596  0.00  0.00    +0.000 N 
ATOM    400  N1  A   B  55       4.599 -28.962  15.452  0.00  0.00    +0.000 NA
ATOM    401  C2  A   B  55       4.163 -29.579  14.350  0.00  0.00    +0.000 A 
ATOM    402  N3  A   B  55       3.685 -29.047  13.224  0.00  0.00    +0.000 NA
ATOM    403  C4  A   B  55       3.676 -27.705  13.298  0.00  0.00    +0.000 A 
ATOM    404  H   A   B  55       5.005 -26.013  16.644  0.00  0.00    +0.000 HD
ATOM    405  H   A   B  55       5.341 -27.523  17.360  0.00  0.00    +0.000 HD
ENDBRANCH 393 394
BRANCH 392 406
ATOM    406  O2' A   B  55       1.021 -28.577  10.060  0.00  0.00    +0.000 OA
ATOM    407  H   A   B  55       1.294 -28.223   9.199  0.00  0.00    +0.000 HD
ENDBRANCH 392 406
BRANCH 391 408
ATOM    408  O3' A   B  55      -0.785 -26.459  10.290  0.00  0.00    +0.000 OA
BRANCH 408 409
ATOM    409  P   A   B  56      -2.011 -26.318  11.288  0.00  0.00    +0.000 P 
ATOM    410  OP1 A   B  56      -3.253 -26.261  10.473  0.00  0.00    +0.000 OA
BRANCH 409 411
ATOM    411  OP2 A   B  56      -1.724 -25.241  12.268  0.00  0.00    +0.000 OA
ATOM    412  H   A   B  56      -1.735 -24.382  11.817  0.00  0.00    +0.000 HD
ENDBRANCH 409 411
BRANCH 409 413
ATOM    413  O5' A   B  56      -1.984 -27.708  12.066  0.00  0.00    +0.000 OA
BRANCH 413 414
ATOM    414  C5' A   B  56      -2.104 -28.938  11.360  0.00  0.00    +0.000 C 
BRANCH 414 415
ATOM    415  C4' A   B  56      -1.821 -30.112  12.267  0.00  0.00    +0.000 C 
ATOM    416  O4' A   B  56      -0.423 -30.110  12.663  0.00  0.00    +0.000 OA
ATOM    417  C3' A   B  56      -2.571 -30.121  13.580  0.00  0.00    +0.000 C 
ATOM    418  C2' A   B  56      -1.706 -31.036  14.433  0.00  0.00    +0.000 C 
ATOM    419  C1' A   B  56      -0.303 -30.631  13.972  0.00  0.00    +0.000 C 
BRANCH 419 420
ATOM    420  N9  A   B  56       0.292 -29.600  14.836  0.00  0.00    +0.000 N 
ATOM    421  C8  A   B  56       0.332 -28.244  14.636  0.00  0.00    +0.000 A 
ATOM    422  N7  A   B  56       0.941 -27.590  15.599  0.00  0.00    +0.000 NA
ATOM    423  C5  A   B  56       1.327 -28.581  16.490  0.00  0.00    +0.000 A 
ATOM    424  C6  A   B  56       2.013 -28.543  17.712  0.00  0.00    +0.000 A 
ATOM    425  N6  A   B  56       2.448 -27.407  18.277  0.00  0.00    +0.000 N 
ATOM    426  N1  A   B  56       2.236 -29.711  18.346  0.00  0.00    +0.000 NA
ATOM    427  C2  A   B  56       1.798 -30.841  17.783  0.00  0.00    +0.000 A 
ATOM    428  N3  A   B  56       1.142 -31.006  16.634  0.00  0.00    +0.000 NA
ATOM    429  C4  A   B  56       0.934 -29.824  16.029  0.00  0.00    +0.000 A 
ATOM    430  H   A   B  56       2.294 -26.544  17.829  0.00  0.00    +0.000 HD
ATOM    431  H   A   B  56       2.921 -27.436  19.140  0.00  0.00    +0.000 HD
ENDBRANCH 419 420
BRANCH 418 432
ATOM    432  O2' A   B  56      -1.918 -32.402  14.123  0.00  0.00    +0.000 OA
ATOM    433  H   A   B  56      -1.757 -32.548  13.178  0.00  0.00    +0.000 HD
ENDBRANCH 418 432
BRANCH 417 434
ATOM    434  O3' A   B  56      -3.916 -30.569  13.438  0.00  0.00    +0.000 OA
BRANCH 434 435
ATOM    435  P   A   B  57      -5.059 -29.944  14.350  0.00  0.00    +0.000 P 
ATOM    436  OP1 A   B  57      -6.368 -30.364  13.783  0.00  0.00    +0.000 OA
BRANCH 435 437
ATOM    437  OP2 A   B  57      -4.782 -28.500  14.572  0.00  0.00    +0.000 OA
ATOM    438  H   A   B  57      -4.905 -28.016  13.741  0.00  0.00    +0.000 HD
ENDBRANCH 435 437
BRANCH 435 439
ATOM    439  O5' A   B  57      -4.846 -30.699  15.737  0.00  0.00    +0.000 OA
BRANCH 439 440
ATOM    440  C5' A   B  57      -4.900 -32.117  15.800  0.00  0.00    +0.000 C 
BRANCH 440 441
ATOM    441  C4' A   B  57      -4.393 -32.618  17.130  0.00  0.00    +0.000 C 
ATOM    442  O4' A   B  57      -2.971 -32.344  17.254  0.00  0.00    +0.000 OA
ATOM    443  C3' A   B  57      -4.993 -31.962  18.354  0.00  0.00    +0.000 C 
ATOM    444  C2' A   B  57      -3.946 -32.257  19.415  0.00  0.00    +0.000 C 
ATOM    445  C1' A   B  57      -2.656 -32.090  18.609  0.00  0.00    +0.000 C 
BRANCH 445 446
ATOM    446  N9  A   B  57      -2.108 -30.730  18.720  0.00  0.00    +0.000 N 
ATOM    447  C8  A   B  57      -2.277 -29.673  17.864  0.00  0.00    +0.000 A 
ATOM    448  N7  A   B  57      -1.659 -28.580  18.252  0.00  0.00    +0.000 NA
ATOM    449  C5  A   B  57      -1.044 -28.943  19.441  0.00  0.00    +0.000 A 
ATOM    450  C6  A   B  57      -0.239 -28.238  20.345  0.00  0.00    +0.000 A 
ATOM    451  N6  A   B  57       0.096 -26.949  20.184  0.00  0.00    +0.000 N 
ATOM    452  N1  A   B  57       0.208 -28.894  21.430  0.00  0.00    +0.000 NA
ATOM    453  C2  A   B  57      -0.130 -30.176  21.592  0.00  0.00    +0.000 A 
ATOM    454  N3  A   B  57      -0.881 -30.950  20.811  0.00  0.00    +0.000 NA
ATOM    455  C4  A   B  57      -1.312 -30.265  19.740  0.00  0.00    +0.000 A 
ATOM    456  H   A   B  57      -0.222 -26.452  19.396  0.00  0.00    +0.000 HD
ATOM    457  H   A   B  57       0.660 -26.500  20.854  0.00  0.00    +0.000 HD
ENDBRANCH 445 446
BRANCH 444 458
ATOM    458  O2' A   B  57      -4.030 -33.589  19.885  0.00  0.00    +0.000 OA
ATOM    459  H   A   B  57      -3.952 -34.201  19.137  0.00  0.00    +0.000 HD
ENDBRANCH 444 458
BRANCH 443 460
ATOM    460  O3' A   B  57      -6.286 -32.462  18.666  0.00  0.00    +0.000 OA
BRANCH 460 461
ATOM    461  P   C   B  58      -7.376 -31.485  19.286  0.00  0.00    +0.000 P 
ATOM    462  OP2 C   B  58      -7.163 -30.114  18.746  0.00  0.00    +0.000 OA
BRANCH 461 463
ATOM    463  OP1 C   B  58      -8.696 -32.142  19.129  0.00  0.00    +0.000 OA
ATOM    464  H   C   B  58      -8.936 -32.165  18.189  0.00  0.00    +0.000 HD
ENDBRANCH 461 463
BRANCH 461 465
ATOM    465  O5' C   B  58      -7.000 -31.456  20.831  0.00  0.00    +0.000 OA
BRANCH 465 466
ATOM    466  C5' C   B  58      -6.903 -32.657  21.576  0.00  0.00    +0.000 C 
BRANCH 466 467
ATOM    467  C4' C   B  58      -6.257 -32.416  22.917  0.00  0.00    +0.000 C 
ATOM    468  O4' C   B  58      -4.864 -32.037  22.739  0.00  0.00    +0.000 OA
ATOM    469  C3' C   B  58      -6.830 -31.281  23.734  0.00  0.00    +0.000 C 
ATOM    470  C2' C   B  58      -5.691 -30.971  24.694  0.00  0.00    +0.000 C 
ATOM    471  C1' C   B  58      -4.476 -31.159  23.776  0.00  0.00    +0.000 C 
BRANCH 471 472
ATOM    472  N1  C   B  58      -4.022 -29.882  23.179  0.00  0.00    +0.000 N 
ATOM    473  C2  C   B  58      -3.153 -29.076  23.925  0.00  0.00    +0.000 A 
ATOM    474  O2  C   B  58      -2.789 -29.465  25.049  0.00  0.00    +0.000 OA
ATOM    475  N3  C   B  58      -2.731 -27.897  23.410  0.00  0.00    +0.000 NA
ATOM    476  C4  C   B  58      -3.143 -27.512  22.200  0.00  0.00    +0.000 A 
ATOM    477  N4  C   B  58      -2.701 -26.342  21.735  0.00  0.00    +0.000 N 
ATOM    478  C5  C   B  58      -4.024 -28.310  21.419  0.00  0.00    +0.000 A 
ATOM    479  C6  C   B  58      -4.436 -29.476  21.939  0.00  0.00    +0.000 A 
ATOM    480  H   C   B  58      -2.984 -26.027  20.846  0.00  0.00    +0.000 HD
ATOM    481  H   C   B  58      -2.091 -25.794  22.280  0.00  0.00    +0.000 HD
ENDBRANCH 471 472
BRANCH 470 482
ATOM    482  O2' C   B  58      -5.621 -31.902  25.750  0.00  0.00    +0.000 OA
ATOM    483  H   C   B  58      -5.538 -32.797  25.387  0.00  0.00    +0.000 HD
ENDBRANCH 470 482
BRANCH 469 484
ATOM    484  O3' C   B  58      -8.039 -31.630  24.382  0.00  0.00    +0.000 OA
BRANCH 484 485
ATOM    485  P   A   B  59      -9.180 -30.582  24.503  0.00  0.00    +0.000 P 
ATOM    486  OP2 A   B  59      -8.796 -29.347  23.761  0.00  0.00    +0.000 OA
BRANCH 485 487
ATOM    487  OP1 A   B  59     -10.464 -31.244  24.174  0.00  0.00    +0.000 OA
ATOM    488  H   A   B  59     -10.487 -31.453  23.227  0.00  0.00    +0.000 HD
ENDBRANCH 485 487
BRANCH 485 489
ATOM    489  O5' A   B  59      -9.173 -30.253  26.058  0.00  0.00    +0.000 OA
BRANCH 489 490
ATOM    490  C5' A   B  59      -8.081 -29.568  26.676  0.00  0.00    +0.000 C 
BRANCH 490 491
ATOM    491  C4' A   B  59      -8.381 -29.393  28.126  0.00  0.00    +0.000 C 
ATOM    492  O4' A   B  59      -7.272 -28.748  28.812  0.00  0.00    +0.000 OA
ATOM    493  C3' A   B  59      -9.560 -28.494  28.434  0.00  0.00    +0.000 C 
ATOM    494  C2' A   B  59      -9.283 -28.101  29.878  0.00  0.00    +0.000 C 
ATOM    495  C1' A   B  59      -7.766 -27.931  29.850  0.00  0.00    +0.000 C 
BRANCH 495 496
ATOM    496  N9  A   B  59      -7.367 -26.541  29.584  0.00  0.00    +0.000 N 
ATOM    497  C8  A   B  59      -6.801 -26.027  28.449  0.00  0.00    +0.000 A 
ATOM    498  N7  A   B  59      -6.560 -24.732  28.521  0.00  0.00    +0.000 NA
ATOM    499  C5  A   B  59      -6.994 -24.379  29.787  0.00  0.00    +0.000 A 
ATOM    500  C6  A   B  59      -7.013 -23.158  30.472  0.00  0.00    +0.000 A 
ATOM    501  N6  A   B  59      -6.565 -22.007  29.956  0.00  0.00    +0.000 N 
ATOM    502  N1  A   B  59      -7.512 -23.149  31.721  0.00  0.00    +0.000 NA
ATOM    503  C2  A   B  59      -7.959 -24.297  32.243  0.00  0.00    +0.000 A 
ATOM    504  N3  A   B  59      -7.993 -25.510  31.697  0.00  0.00    +0.000 NA
ATOM    505  C4  A   B  59      -7.492 -25.482  30.452  0.00  0.00    +0.000 A 
ATOM    506  H   A   B  59      -6.195 -21.987  29.044  0.00  0.00    +0.000 HD
ATOM    507  H   A   B  59      -6.605 -21.180  30.489  0.00  0.00    +0.000 HD
ENDBRANCH 495 496
BRANCH 494 508
ATOM    508  O2' A   B  59      -9.631 -29.125  30.784  0.00  0.00    +0.000 OA
ATOM    509  H   A   B  59      -9.158 -29.939  30.549  0.00  0.00    +0.000 HD
ENDBRANCH 494 508
BRANCH 493 510
ATOM    510  O3' A   B  59     -10.809 -29.153  28.273  0.00  0.00    +0.000 OA
BRANCH 510 511
ATOM    511  P   G   B  60     -12.030 -28.367  27.791  0.00  0.00    +0.000 P 
ATOM    512  OP2 G   B  60     -11.599 -27.220  26.959  0.00  0.00    +0.000 OA
BRANCH 511 513
ATOM    513  OP1 G   B  60     -13.029 -29.328  27.263  0.00  0.00    +0.000 OA
ATOM    514  H   G   B  60     -12.716 -29.689  26.419  0.00  0.00    +0.000 HD
ENDBRANCH 511 513
BRANCH 511 515
ATOM    515  O5' G   B  60     -12.566 -27.792  29.169  0.00  0.00    +0.000 OA
BRANCH 515 516
ATOM    516  C5' G   B  60     -12.791 -28.646  30.281  0.00  0.00    +0.000 C 
BRANCH 516 517
ATOM    517  C4' G   B  60     -12.948 -27.851  31.547  0.00  0.00    +0.000 C 
ATOM    518  O4' G   B  60     -11.715 -27.149  31.852  0.00  0.00    +0.000 OA
ATOM    519  C3' G   B  60     -13.985 -26.751  31.500  0.00  0.00    +0.000 C 
ATOM    520  C2' G   B  60     -13.526 -25.831  32.616  0.00  0.00    +0.000 C 
ATOM    521  C1' G   B  60     -12.013 -25.902  32.448  0.00  0.00    +0.000 C 
BRANCH 521 522
ATOM    522  N9  G   B  60     -11.502 -24.830  31.578  0.00  0.00    +0.000 N 
ATOM    523  C8  G   B  60     -11.092 -24.941  30.271  0.00  0.00    +0.000 A 
ATOM    524  N7  G   B  60     -10.693 -23.807  29.763  0.00  0.00    +0.000 NA
ATOM    525  C5  G   B  60     -10.847 -22.889  30.793  0.00  0.00    +0.000 A 
ATOM    526  C6  G   B  60     -10.578 -21.501  30.835  0.00  0.00    +0.000 A 
ATOM    527  O6  G   B  60     -10.137 -20.774  29.932  0.00  0.00    +0.000 OA
ATOM    528  N1  G   B  60     -10.877 -20.959  32.072  0.00  0.00    +0.000 NA
ATOM    529  C2  G   B  60     -11.371 -21.664  33.141  0.00  0.00    +0.000 A 
ATOM    530  N2  G   B  60     -11.598 -20.963  34.259  0.00  0.00    +0.000 N 
ATOM    531  N3  G   B  60     -11.628 -22.958  33.120  0.00  0.00    +0.000 N 
ATOM    532  C4  G   B  60     -11.343 -23.507  31.921  0.00  0.00    +0.000 A 
ATOM    533  H   G   B  60     -11.408 -19.997  34.281  0.00  0.00    +0.000 HD
ATOM    534  H   G   B  60     -11.954 -21.413  35.059  0.00  0.00    +0.000 HD
ATOM    535  H   G   B  60     -11.985 -23.462  33.887  0.00  0.00    +0.000 HD
ENDBRANCH 521 522
BRANCH 520 536
ATOM    536  O2' G   B  60     -13.879 -26.328  33.891  0.00  0.00    +0.000 OA
ATOM    537  H   G   B  60     -13.516 -27.220  34.002  0.00  0.00    +0.000 HD
ENDBRANCH 520 536
BRANCH 519 538
ATOM    538  O3' G   B  60     -15.301 -27.252  31.670  0.00  0.00    +0.000 OA
BRANCH 538 539
ATOM    539  P   A   B  61     -16.505 -26.488  31.041  0.00  0.00    +0.000 P 
ATOM    540  OP2 A   B  61     -16.045 -25.732  29.851  0.00  0.00    +0.000 OA
BRANCH 539 541
ATOM    541  OP1 A   B  61     -17.640 -27.436  30.922  0.00  0.00    +0.000 OA
ATOM    542  H   A   B  61     -17.447 -28.086  30.228  0.00  0.00    +0.000 HD
ENDBRANCH 539 541
BRANCH 539 543
ATOM    543  O5' A   B  61     -16.855 -25.442  32.184  0.00  0.00    +0.000 OA
BRANCH 543 544
ATOM    544  C5' A   B  61     -17.141 -25.877  33.506  0.00  0.00    +0.000 C 
BRANCH 544 545
ATOM    545  C4' A   B  61     -17.415 -24.707  34.408  0.00  0.00    +0.000 C 
ATOM    546  O4' A   B  61     -16.179 -24.014  34.722  0.00  0.00    +0.000 OA
ATOM    547  C3' A   B  61     -18.295 -23.624  33.822  0.00  0.00    +0.000 C 
ATOM    548  C2' A   B  61     -17.938 -22.423  34.681  0.00  0.00    +0.000 C 
ATOM    549  C1' A   B  61     -16.436 -22.630  34.865  0.00  0.00    +0.000 C 
BRANCH 549 550
ATOM    550  N9  A   B  61     -15.649 -21.901  33.860  0.00  0.00    +0.000 N 
ATOM    551  C8  A   B  61     -15.028 -22.401  32.746  0.00  0.00    +0.000 A 
ATOM    552  N7  A   B  61     -14.398 -21.492  32.038  0.00  0.00    +0.000 NA
ATOM    553  C5  A   B  61     -14.617 -20.313  32.737  0.00  0.00    +0.000 A 
ATOM    554  C6  A   B  61     -14.213 -18.990  32.509  0.00  0.00    +0.000 A 
ATOM    555  N1  A   B  61     -14.600 -18.055  33.393  0.00  0.00    +0.000 NA
ATOM    556  C2  A   B  61     -15.344 -18.434  34.442  0.00  0.00    +0.000 A 
ATOM    557  N3  A   B  61     -15.786 -19.645  34.766  0.00  0.00    +0.000 NA
ATOM    558  C4  A   B  61     -15.384 -20.552  33.860  0.00  0.00    +0.000 A 
BRANCH 554 559
ATOM    559  N6  A   B  61     -13.471 -18.611  31.461  0.00  0.00    +0.000 N 
ATOM    560  H   A   B  61     -13.176 -19.278  30.800  0.00  0.00    +0.000 HD
ATOM    561  H   A   B  61     -13.221 -17.665  31.351  0.00  0.00    +0.000 HD
ENDBRANCH 554 559
ENDBRANCH 549 550
BRANCH 548 562
ATOM    562  O2' A   B  61     -18.572 -22.478  35.944  0.00  0.00    +0.000 OA
ATOM    563  H   A   B  61     -18.342 -23.311  36.385  0.00  0.00    +0.000 HD
ENDBRANCH 548 562
BRANCH 547 564
ATOM    564  O3' A   B  61     -19.674 -23.971  33.860  0.00  0.00    +0.000 OA
BRANCH 564 565
ATOM    565  P   C   B  62     -20.605 -23.565  32.657  0.00  0.00    +0.000 P 
ATOM    566  OP2 C   B  62     -19.851 -23.652  31.380  0.00  0.00    +0.000 OA
BRANCH 565 567
ATOM    567  OP1 C   B  62     -21.883 -24.309  32.813  0.00  0.00    +0.000 OA
ATOM    568  H   C   B  62     -22.481 -24.080  32.085  0.00  0.00    +0.000 HD
ENDBRANCH 565 567
BRANCH 565 569
ATOM    569  O5' C   B  62     -20.884 -22.031  32.961  0.00  0.00    +0.000 OA
BRANCH 569 570
ATOM    570  C5' C   B  62     -21.350 -21.614  34.238  0.00  0.00    +0.000 C 
BRANCH 570 571
ATOM    571  C4' C   B  62     -21.204 -20.125  34.404  0.00  0.00    +0.000 C 
ATOM    572  O4' C   B  62     -19.799 -19.761  34.432  0.00  0.00    +0.000 OA
ATOM    573  C3' C   B  62     -21.769 -19.278  33.292  0.00  0.00    +0.000 C 
ATOM    574  C2' C   B  62     -21.023 -17.964  33.476  0.00  0.00    +0.000 C 
ATOM    575  C1' C   B  62     -19.634 -18.470  33.876  0.00  0.00    +0.000 C 
BRANCH 575 576
ATOM    576  N1  C   B  62     -18.708 -18.553  32.726  0.00  0.00    +0.000 N 
ATOM    577  C2  C   B  62     -18.030 -17.395  32.326  0.00  0.00    +0.000 A 
ATOM    578  O2  C   B  62     -18.225 -16.342  32.952  0.00  0.00    +0.000 OA
ATOM    579  N3  C   B  62     -17.182 -17.448  31.273  0.00  0.00    +0.000 NA
ATOM    580  C4  C   B  62     -16.994 -18.597  30.625  0.00  0.00    +0.000 A 
ATOM    581  N4  C   B  62     -16.149 -18.599  29.591  0.00  0.00    +0.000 N 
ATOM    582  C5  C   B  62     -17.668 -19.790  31.011  0.00  0.00    +0.000 A 
ATOM    583  C6  C   B  62     -18.506 -19.726  32.053  0.00  0.00    +0.000 A 
ATOM    584  H   C   B  62     -15.987 -19.431  29.090  0.00  0.00    +0.000 HD
ATOM    585  H   C   B  62     -15.689 -17.769  29.330  0.00  0.00    +0.000 HD
ENDBRANCH 575 576
BRANCH 574 586
ATOM    586  O2' C   B  62     -21.560 -17.198  34.532  0.00  0.00    +0.000 OA
ATOM    587  H   C   B  62     -21.554 -17.723  35.348  0.00  0.00    +0.000 HD
ENDBRANCH 574 586
BRANCH 573 588
ATOM    588  O3' C   B  62     -23.183 -19.154  33.376  0.00  0.00    +0.000 OA
BRANCH 588 589
ATOM    589  P   U   B  63     -24.035 -18.990  32.062  0.00  0.00    +0.000 P 
ATOM    590  OP2 U   B  63     -23.288 -19.583  30.922  0.00  0.00    +0.000 OA
BRANCH 589 591
ATOM    591  OP1 U   B  63     -25.418 -19.440  32.354  0.00  0.00    +0.000 OA
ATOM    592  H   U   B  63     -25.963 -19.348  31.557  0.00  0.00    +0.000 HD
ENDBRANCH 589 591
BRANCH 589 593
ATOM    593  O5' U   B  63     -24.053 -17.410  31.875  0.00  0.00    +0.000 OA
BRANCH 593 594
ATOM    594  C5' U   B  63     -24.442 -16.556  32.933  0.00  0.00    +0.000 C 
BRANCH 594 595
ATOM    595  C4' U   B  63     -24.016 -15.135  32.669  0.00  0.00    +0.000 C 
ATOM    596  O4' U   B  63     -22.571 -15.028  32.749  0.00  0.00    +0.000 OA
ATOM    597  C3' U   B  63     -24.343 -14.592  31.299  0.00  0.00    +0.000 C 
ATOM    598  C2' U   B  63     -23.358 -13.437  31.166  0.00  0.00    +0.000 C 
ATOM    599  C1' U   B  63     -22.124 -14.012  31.872  0.00  0.00    +0.000 C 
BRANCH 599 600
ATOM    600  N1  U   B  63     -21.141 -14.586  30.931  0.00  0.00    +0.000 N 
ATOM    601  C2  U   B  63     -20.190 -13.725  30.409  0.00  0.00    +0.000 A 
ATOM    602  O2  U   B  63     -20.142 -12.544  30.693  0.00  0.00    +0.000 OA
ATOM    603  N3  U   B  63     -19.296 -14.302  29.540  0.00  0.00    +0.000 N 
ATOM    604  C4  U   B  63     -19.254 -15.622  29.149  0.00  0.00    +0.000 A 
ATOM    605  O4  U   B  63     -18.387 -15.988  28.359  0.00  0.00    +0.000 OA
ATOM    606  C5  U   B  63     -20.268 -16.444  29.732  0.00  0.00    +0.000 A 
ATOM    607  C6  U   B  63     -21.154 -15.911  30.583  0.00  0.00    +0.000 A 
ATOM    608  H   U   B  63     -18.612 -13.708  29.155  0.00  0.00    +0.000 HD
ENDBRANCH 599 600
BRANCH 598 609
ATOM    609  O2' U   B  63     -23.796 -12.291  31.869  0.00  0.00    +0.000 OA
ATOM    610  H   U   B  63     -23.945 -12.520  32.800  0.00  0.00    +0.000 HD
ENDBRANCH 598 609
BRANCH 597 611
ATOM    611  O3' U   B  63     -25.705 -14.200  31.187  0.00  0.00    +0.000 OA
BRANCH 611 612
ATOM    612  P   A   B  64     -26.497 -14.430  29.839  0.00  0.00    +0.000 P 
ATOM    613  OP2 A   B  64     -25.997 -15.667  29.193  0.00  0.00    +0.000 OA
BRANCH 612 614
ATOM    614  OP1 A   B  64     -27.943 -14.279  30.123  0.00  0.00    +0.000 OA
ATOM    615  H   A   B  64     -28.449 -14.417  29.307  0.00  0.00    +0.000 HD
ENDBRANCH 612 614
BRANCH 612 616
ATOM    616  O5' A   B  64     -26.028 -13.185  28.960  0.00  0.00    +0.000 OA
BRANCH 616 617
ATOM    617  C5' A   B  64     -26.253 -11.860  29.407  0.00  0.00    +0.000 C 
BRANCH 617 618
ATOM    618  C4' A   B  64     -25.431 -10.876  28.608  0.00  0.00    +0.000 C 
ATOM    619  O4' A   B  64     -24.017 -11.098  28.858  0.00  0.00    +0.000 OA
ATOM    620  C3' A   B  64     -25.553 -10.982  27.104  0.00  0.00    +0.000 C 
ATOM    621  C2' A   B  64     -24.263 -10.321  26.626  0.00  0.00    +0.000 C 
ATOM    622  C1' A   B  64     -23.272 -10.754  27.712  0.00  0.00    +0.000 C 
BRANCH 622 623
ATOM    623  N9  A   B  64     -22.459 -11.911  27.311  0.00  0.00    +0.000 N 
ATOM    624  C8  A   B  64     -22.765 -13.242  27.396  0.00  0.00    +0.000 A 
ATOM    625  N7  A   B  64     -21.817 -14.029  26.948  0.00  0.00    +0.000 NA
ATOM    626  C5  A   B  64     -20.816 -13.156  26.545  0.00  0.00    +0.000 A 
ATOM    627  C6  A   B  64     -19.544 -13.360  25.980  0.00  0.00    +0.000 A 
ATOM    628  N1  A   B  64     -18.798 -12.276  25.698  0.00  0.00    +0.000 NA
ATOM    629  C2  A   B  64     -19.301 -11.069  25.968  0.00  0.00    +0.000 A 
ATOM    630  N3  A   B  64     -20.480 -10.747  26.496  0.00  0.00    +0.000 NA
ATOM    631  C4  A   B  64     -21.199 -11.848  26.765  0.00  0.00    +0.000 A 
BRANCH 627 632
ATOM    632  N6  A   B  64     -19.043 -14.572  25.707  0.00  0.00    +0.000 N 
ATOM    633  H   A   B  64     -18.146 -14.656  25.311  0.00  0.00    +0.000 HD
ATOM    634  H   A   B  64     -19.572 -15.379  25.902  0.00  0.00    +0.000 HD
ENDBRANCH 627 632
ENDBRANCH 622 623
BRANCH 621 635
ATOM    635  O2' A   B  64     -24.366  -8.906  26.627  0.00  0.00    +0.000 OA
ATOM    636  H   A   B  64     -24.606  -8.600  27.516  0.00  0.00    +0.000 HD
ENDBRANCH 621 635
BRANCH 620 637
ATOM    637  O3' A   B  64     -26.725 -10.344  26.617  0.00  0.00    +0.000 OA
BRANCH 637 638
ATOM    638  P   C   B  65     -27.871 -11.165  25.925  0.00  0.00    +0.000 P 
ATOM    639  OP2 C   B  65     -27.414 -12.553  25.678  0.00  0.00    +0.000 OA
BRANCH 638 640
ATOM    640  OP1 C   B  65     -29.118 -10.933  26.701  0.00  0.00    +0.000 OA
ATOM    641  H   C   B  65     -29.847 -11.429  26.297  0.00  0.00    +0.000 HD
ENDBRANCH 638 640
BRANCH 638 642
ATOM    642  O5' C   B  65     -28.016 -10.438  24.509  0.00  0.00    +0.000 OA
BRANCH 642 643
ATOM    643  C5' C   B  65     -27.260 -10.851  23.388  0.00  0.00    +0.000 C 
BRANCH 643 644
ATOM    644  C4' C   B  65     -27.200  -9.758  22.354  0.00  0.00    +0.000 C 
ATOM    645  O4' C   B  65     -28.538  -9.382  21.959  0.00  0.00    +0.000 OA
ATOM    646  C3' C   B  65     -26.572  -8.461  22.809  0.00  0.00    +0.000 C 
ATOM    647  C2' C   B  65     -27.172  -7.447  21.839  0.00  0.00    +0.000 C 
ATOM    648  C1' C   B  65     -28.588  -7.997  21.670  0.00  0.00    +0.000 C 
BRANCH 648 649
ATOM    649  N1  C   B  65     -29.581  -7.357  22.562  0.00  0.00    +0.000 N 
ATOM    650  C2  C   B  65     -29.954  -6.025  22.337  0.00  0.00    +0.000 A 
ATOM    651  O2  C   B  65     -29.432  -5.401  21.392  0.00  0.00    +0.000 OA
ATOM    652  N3  C   B  65     -30.866  -5.443  23.145  0.00  0.00    +0.000 NA
ATOM    653  C4  C   B  65     -31.404  -6.141  24.148  0.00  0.00    +0.000 A 
ATOM    654  N4  C   B  65     -32.299  -5.525  24.924  0.00  0.00    +0.000 N 
ATOM    655  C5  C   B  65     -31.052  -7.496  24.400  0.00  0.00    +0.000 A 
ATOM    656  C6  C   B  65     -30.145  -8.063  23.587  0.00  0.00    +0.000 A 
ATOM    657  H   C   B  65     -32.541  -4.587  24.747  0.00  0.00    +0.000 HD
ATOM    658  H   C   B  65     -32.717  -6.009  25.673  0.00  0.00    +0.000 HD
ENDBRANCH 648 649
BRANCH 647 659
ATOM    659  O2' C   B  65     -26.515  -7.452  20.588  0.00  0.00    +0.000 OA
ATOM    660  H   C   B  65     -26.542  -8.346  20.212  0.00  0.00    +0.000 HD
ENDBRANCH 647 659
BRANCH 646 661
ATOM    661  O3' C   B  65     -25.157  -8.510  22.746  0.00  0.00    +0.000 OA
BRANCH 661 662
ATOM    662  P   A   B  66     -24.291  -7.849  23.862  0.00  0.00    +0.000 P 
ATOM    663  OP1 A   B  66     -23.117  -8.742  24.092  0.00  0.00    +0.000 OA
BRANCH 662 664
ATOM    664  OP2 A   B  66     -25.122  -7.445  25.013  0.00  0.00    +0.000 OA
ATOM    665  H   A   B  66     -25.841  -6.870  24.707  0.00  0.00    +0.000 HD
ENDBRANCH 662 664
BRANCH 662 666
ATOM    666  O5' A   B  66     -23.765  -6.525  23.139  0.00  0.00    +0.000 OA
BRANCH 666 667
ATOM    667  C5' A   B  66     -24.341  -5.255  23.382  0.00  0.00    +0.000 C 
BRANCH 667 668
ATOM    668  C4' A   B  66     -23.332  -4.176  23.083  0.00  0.00    +0.000 C 
ATOM    669  O4' A   B  66     -22.213  -4.301  24.000  0.00  0.00    +0.000 OA
ATOM    670  C3' A   B  66     -22.702  -4.236  21.703  0.00  0.00    +0.000 C 
ATOM    671  C2' A   B  66     -21.366  -3.544  21.921  0.00  0.00    +0.000 C 
ATOM    672  C1' A   B  66     -21.001  -4.037  23.320  0.00  0.00    +0.000 C 
BRANCH 672 673
ATOM    673  N9  A   B  66     -20.205  -5.270  23.302  0.00  0.00    +0.000 N 
ATOM    674  C8  A   B  66     -20.581  -6.502  23.769  0.00  0.00    +0.000 A 
ATOM    675  N7  A   B  66     -19.661  -7.425  23.622  0.00  0.00    +0.000 NA
ATOM    676  C5  A   B  66     -18.608  -6.754  23.022  0.00  0.00    +0.000 A 
ATOM    677  C6  A   B  66     -17.340  -7.173  22.603  0.00  0.00    +0.000 A 
ATOM    678  N1  A   B  66     -16.528  -6.257  22.035  0.00  0.00    +0.000 NA
ATOM    679  C2  A   B  66     -16.971  -5.000  21.906  0.00  0.00    +0.000 A 
ATOM    680  N3  A   B  66     -18.144  -4.484  22.261  0.00  0.00    +0.000 NA
ATOM    681  C4  A   B  66     -18.927  -5.425  22.821  0.00  0.00    +0.000 A 
BRANCH 677 682
ATOM    682  N6  A   B  66     -16.901  -8.431  22.732  0.00  0.00    +0.000 N 
ATOM    683  H   A   B  66     -15.999  -8.672  22.420  0.00  0.00    +0.000 HD
ATOM    684  H   A   B  66     -17.480  -9.115  23.139  0.00  0.00    +0.000 HD
ENDBRANCH 677 682
ENDBRANCH 672 673
BRANCH 671 685
ATOM    685  O2' A   B  66     -21.497  -2.137  21.940  0.00  0.00    +0.000 OA
ATOM    686  H   A   B  66     -22.138  -1.881  22.622  0.00  0.00    +0.000 HD
ENDBRANCH 671 685
BRANCH 670 687
ATOM    687  O3' A   B  66     -23.512  -3.604  20.717  0.00  0.00    +0.000 OA
BRANCH 687 688
ATOM    688  P   A   B  67     -23.719  -4.275  19.297  0.00  0.00    +0.000 P 
ATOM    689  OP1 A   B  67     -24.638  -3.406  18.525  0.00  0.00    +0.000 OA
BRANCH 688 690
ATOM    690  OP2 A   B  67     -24.047  -5.707  19.493  0.00  0.00    +0.000 OA
ATOM    691  H   A   B  67     -24.176  -6.130  18.630  0.00  0.00    +0.000 HD
ENDBRANCH 688 690
BRANCH 688 692
ATOM    692  O5' A   B  67     -22.278  -4.186  18.628  0.00  0.00    +0.000 OA
BRANCH 692 693
ATOM    693  C5' A   B  67     -21.721  -2.928  18.260  0.00  0.00    +0.000 C 
BRANCH 693 694
ATOM    694  C4' A   B  67     -20.295  -3.091  17.799  0.00  0.00    +0.000 C 
ATOM    695  O4' A   B  67     -19.472  -3.553  18.899  0.00  0.00    +0.000 OA
ATOM    696  C3' A   B  67     -20.072  -4.126  16.715  0.00  0.00    +0.000 C 
ATOM    697  C2' A   B  67     -18.604  -4.474  16.901  0.00  0.00    +0.000 C 
ATOM    698  C1' A   B  67     -18.497  -4.460  18.421  0.00  0.00    +0.000 C 
BRANCH 698 699
ATOM    699  N9  A   B  67     -18.767  -5.785  18.995  0.00  0.00    +0.000 N 
ATOM    700  C8  A   B  67     -19.897  -6.202  19.647  0.00  0.00    +0.000 A 
ATOM    701  N7  A   B  67     -19.847  -7.450  20.041  0.00  0.00    +0.000 NA
ATOM    702  C5  A   B  67     -18.598  -7.883  19.622  0.00  0.00    +0.000 A 
ATOM    703  C6  A   B  67     -17.934  -9.114  19.732  0.00  0.00    +0.000 A 
ATOM    704  N6  A   B  67     -18.471 -10.186  20.327  0.00  0.00    +0.000 N 
ATOM    705  N1  A   B  67     -16.701  -9.210  19.204  0.00  0.00    +0.000 NA
ATOM    706  C2  A   B  67     -16.168  -8.137  18.609  0.00  0.00    +0.000 A 
ATOM    707  N3  A   B  67     -16.690  -6.927  18.440  0.00  0.00    +0.000 NA
ATOM    708  C4  A   B  67     -17.923  -6.865  18.977  0.00  0.00    +0.000 A 
ATOM    709  H   A   B  67     -17.962 -11.027  20.378  0.00  0.00    +0.000 HD
ATOM    710  H   A   B  67     -19.375 -10.133  20.714  0.00  0.00    +0.000 HD
ENDBRANCH 698 699
BRANCH 697 711
ATOM    711  O2' A   B  67     -17.753  -3.481  16.363  0.00  0.00    +0.000 OA
ATOM    712  H   A   B  67     -17.964  -2.623  16.763  0.00  0.00    +0.000 HD
ENDBRANCH 697 711
BRANCH 696 713
ATOM    713  O3' A   B  67     -20.385  -3.643  15.415  0.00  0.00    +0.000 OA
BRANCH 713 714
ATOM    714  P   A   B  68     -20.999  -4.617  14.334  0.00  0.00    +0.000 P 
ATOM    715  OP1 A   B  68     -21.358  -3.800  13.149  0.00  0.00    +0.000 OA
BRANCH 714 716
ATOM    716  OP2 A   B  68     -22.035  -5.458  14.991  0.00  0.00    +0.000 OA
ATOM    717  H   A   B  68     -22.422  -6.063  14.339  0.00  0.00    +0.000 HD
ENDBRANCH 714 716
BRANCH 714 718
ATOM    718  O5' A   B  68     -19.781  -5.565  13.932  0.00  0.00    +0.000 OA
BRANCH 718 719
ATOM    719  C5' A   B  68     -18.637  -5.033  13.278  0.00  0.00    +0.000 C 
BRANCH 719 720
ATOM    720  C4' A   B  68     -17.527  -6.053  13.208  0.00  0.00    +0.000 C 
ATOM    721  O4' A   B  68     -17.137  -6.456  14.547  0.00  0.00    +0.000 OA
ATOM    722  C3' A   B  68     -17.866  -7.363  12.525  0.00  0.00    +0.000 C 
ATOM    723  C2' A   B  68     -16.802  -8.290  13.086  0.00  0.00    +0.000 C 
ATOM    724  C1' A   B  68     -16.742  -7.815  14.536  0.00  0.00    +0.000 C 
BRANCH 724 725
ATOM    725  N9  A   B  68     -17.656  -8.585  15.388  0.00  0.00    +0.000 N 
ATOM    726  C8  A   B  68     -18.851  -8.191  15.926  0.00  0.00    +0.000 A 
ATOM    727  N7  A   B  68     -19.439  -9.123  16.637  0.00  0.00    +0.000 NA
ATOM    728  C5  A   B  68     -18.573 -10.203  16.561  0.00  0.00    +0.000 A 
ATOM    729  C6  A   B  68     -18.618 -11.499  17.099  0.00  0.00    +0.000 A 
ATOM    730  N6  A   B  68     -19.627 -11.947  17.854  0.00  0.00    +0.000 N 
ATOM    731  N1  A   B  68     -17.592 -12.329  16.827  0.00  0.00    +0.000 NA
ATOM    732  C2  A   B  68     -16.587 -11.878  16.070  0.00  0.00    +0.000 A 
ATOM    733  N3  A   B  68     -16.429 -10.684  15.507  0.00  0.00    +0.000 NA
ATOM    734  C4  A   B  68     -17.471  -9.883  15.795  0.00  0.00    +0.000 A 
ATOM    735  H   A   B  68     -20.385 -11.355  18.064  0.00  0.00    +0.000 HD
ATOM    736  H   A   B  68     -19.611 -12.868  18.200  0.00  0.00    +0.000 HD
ENDBRANCH 724 725
BRANCH 723 737
ATOM    737  O2' A   B  68     -15.544  -8.081  12.477  0.00  0.00    +0.000 OA
ATOM    738  H   A   B  68     -15.287  -7.151  12.576  0.00  0.00    +0.000 HD
ENDBRANCH 723 737
BRANCH 722 739
ATOM    739  O3' A   B  68     -17.853  -7.273  11.105  0.00  0.00    +0.000 OA
BRANCH 739 740
ATOM    740  P   A   B  69     -18.775  -8.214  10.237  0.00  0.00    +0.000 P 
ATOM    741  OP1 A   B  69     -18.742  -7.726   8.837  0.00  0.00    +0.000 OA
BRANCH 740 742
ATOM    742  OP2 A   B  69     -20.078  -8.376  10.932  0.00  0.00    +0.000 OA
ATOM    743  H   A   B  69     -20.655  -8.953  10.408  0.00  0.00    +0.000 HD
ENDBRANCH 740 742
BRANCH 740 744
ATOM    744  O5' A   B  69     -18.017  -9.617  10.292  0.00  0.00    +0.000 OA
BRANCH 744 745
ATOM    745  C5' A   B  69     -16.711  -9.757   9.745  0.00  0.00    +0.000 C 
BRANCH 745 746
ATOM    746  C4' A   B  69     -16.083 -11.062  10.178  0.00  0.00    +0.000 C 
ATOM    747  O4' A   B  69     -16.088 -11.159  11.626  0.00  0.00    +0.000 OA
ATOM    748  C3' A   B  69     -16.791 -12.325   9.729  0.00  0.00    +0.000 C 
ATOM    749  C2' A   B  69     -16.282 -13.344  10.734  0.00  0.00    +0.000 C 
ATOM    750  C1' A   B  69     -16.251 -12.510  12.012  0.00  0.00    +0.000 C 
BRANCH 750 751
ATOM    751  N9  A   B  69     -17.494 -12.641  12.782  0.00  0.00    +0.000 N 
ATOM    752  C8  A   B  69     -18.480 -11.710  12.966  0.00  0.00    +0.000 A 
ATOM    753  N7  A   B  69     -19.476 -12.136  13.707  0.00  0.00    +0.000 NA
ATOM    754  C5  A   B  69     -19.121 -13.435  14.033  0.00  0.00    +0.000 A 
ATOM    755  C6  A   B  69     -19.750 -14.430  14.797  0.00  0.00    +0.000 A 
ATOM    756  N6  A   B  69     -20.935 -14.258  15.398  0.00  0.00    +0.000 N 
ATOM    757  N1  A   B  69     -19.127 -15.617  14.922  0.00  0.00    +0.000 NA
ATOM    758  C2  A   B  69     -17.947 -15.786  14.317  0.00  0.00    +0.000 A 
ATOM    759  N3  A   B  69     -17.253 -14.929  13.574  0.00  0.00    +0.000 NA
ATOM    760  C4  A   B  69     -17.903 -13.758  13.469  0.00  0.00    +0.000 A 
ATOM    761  H   A   B  69     -21.407 -13.398  15.319  0.00  0.00    +0.000 HD
ATOM    762  H   A   B  69     -21.334 -14.992  15.919  0.00  0.00    +0.000 HD
ENDBRANCH 750 751
BRANCH 749 763
ATOM    763  O2' A   B  69     -14.969 -13.773  10.431  0.00  0.00    +0.000 OA
ATOM    764  H   A   B  69     -14.380 -13.004  10.384  0.00  0.00    +0.000 HD
ENDBRANCH 749 763
BRANCH 748 765
ATOM    765  O3' A   B  69     -16.501 -12.671   8.379  0.00  0.00    +0.000 OA
BRANCH 765 766
ATOM    766  P   A   B  70     -17.612 -13.335   7.464  0.00  0.00    +0.000 P 
ATOM    767  OP1 A   B  70     -17.037 -13.520   6.111  0.00  0.00    +0.000 OA
BRANCH 766 768
ATOM    768  OP2 A   B  70     -18.872 -12.569   7.635  0.00  0.00    +0.000 OA
ATOM    769  H   A   B  70     -19.566 -12.961   7.082  0.00  0.00    +0.000 HD
ENDBRANCH 766 768
BRANCH 766 770
ATOM    770  O5' A   B  70     -17.820 -14.775   8.124  0.00  0.00    +0.000 OA
BRANCH 770 771
ATOM    771  C5' A   B  70     -16.754 -15.710   8.182  0.00  0.00    +0.000 C 
BRANCH 771 772
ATOM    772  C4' A   B  70     -17.099 -16.864   9.097  0.00  0.00    +0.000 C 
ATOM    773  O4' A   B  70     -17.440 -16.362  10.413  0.00  0.00    +0.000 OA
ATOM    774  C3' A   B  70     -18.304 -17.687   8.691  0.00  0.00    +0.000 C 
ATOM    775  C2' A   B  70     -18.746 -18.301  10.010  0.00  0.00    +0.000 C 
ATOM    776  C1' A   B  70     -18.453 -17.163  10.986  0.00  0.00    +0.000 C 
BRANCH 776 777
ATOM    777  N9  A   B  70     -19.625 -16.320  11.244  0.00  0.00    +0.000 N 
ATOM    778  C8  A   B  70     -19.885 -15.066  10.760  0.00  0.00    +0.000 A 
ATOM    779  N7  A   B  70     -21.018 -14.565  11.178  0.00  0.00    +0.000 NA
ATOM    780  C5  A   B  70     -21.543 -15.554  11.994  0.00  0.00    +0.000 A 
ATOM    781  C6  A   B  70     -22.724 -15.636  12.742  0.00  0.00    +0.000 A 
ATOM    782  N6  A   B  70     -23.636 -14.658  12.784  0.00  0.00    +0.000 N 
ATOM    783  N1  A   B  70     -22.944 -16.762  13.445  0.00  0.00    +0.000 NA
ATOM    784  C2  A   B  70     -22.029 -17.735  13.397  0.00  0.00    +0.000 A 
ATOM    785  N3  A   B  70     -20.881 -17.774  12.735  0.00  0.00    +0.000 NA
ATOM    786  C4  A   B  70     -20.693 -16.640  12.043  0.00  0.00    +0.000 A 
ATOM    787  H   A   B  70     -23.491 -13.827  12.276  0.00  0.00    +0.000 HD
ATOM    788  H   A   B  70     -24.452 -14.769  13.323  0.00  0.00    +0.000 HD
ENDBRANCH 776 777
BRANCH 775 789
ATOM    789  O2' A   B  70     -17.957 -19.421  10.362  0.00  0.00    +0.000 OA
ATOM    790  H   A   B  70     -17.023 -19.161  10.395  0.00  0.00    +0.000 HD
ENDBRANCH 775 789
BRANCH 774 791
ATOM    791  O3' A   B  70     -17.970 -18.655   7.706  0.00  0.00    +0.000 OA
BRANCH 791 792
ATOM    792  P   U   B  71     -19.074 -19.232   6.704  0.00  0.00    +0.000 P 
ATOM    793  OP1 U   B  71     -18.378 -19.758   5.504  0.00  0.00    +0.000 OA
BRANCH 792 794
ATOM    794  OP2 U   B  71     -20.157 -18.221   6.539  0.00  0.00    +0.000 OA
ATOM    795  H   U   B  71     -20.831 -18.565   5.932  0.00  0.00    +0.000 HD
ENDBRANCH 792 794
BRANCH 792 796
ATOM    796  O5' U   B  71     -19.661 -20.468   7.517  0.00  0.00    +0.000 OA
BRANCH 796 797
ATOM    797  C5' U   B  71     -18.802 -21.479   8.026  0.00  0.00    +0.000 C 
BRANCH 797 798
ATOM    798  C4' U   B  71     -19.576 -22.554   8.753  0.00  0.00    +0.000 C 
ATOM    799  O4' U   B  71     -20.293 -21.953   9.871  0.00  0.00    +0.000 OA
ATOM    800  C3' U   B  71     -20.622 -23.268   7.903  0.00  0.00    +0.000 C 
ATOM    801  C2' U   B  71     -21.917 -22.579   8.303  0.00  0.00    +0.000 C 
ATOM    802  C1' U   B  71     -21.663 -22.269   9.779  0.00  0.00    +0.000 C 
BRANCH 802 803
ATOM    803  N1  U   B  71     -22.442 -21.128  10.286  0.00  0.00    +0.000 N 
ATOM    804  C2  U   B  71     -23.267 -21.341  11.377  0.00  0.00    +0.000 A 
ATOM    805  O2  U   B  71     -23.363 -22.424  11.932  0.00  0.00    +0.000 OA
ATOM    806  N3  U   B  71     -23.972 -20.243  11.800  0.00  0.00    +0.000 N 
ATOM    807  C4  U   B  71     -23.936 -18.979  11.255  0.00  0.00    +0.000 A 
ATOM    808  O4  U   B  71     -24.631 -18.095  11.748  0.00  0.00    +0.000 OA
ATOM    809  C5  U   B  71     -23.066 -18.837  10.129  0.00  0.00    +0.000 A 
ATOM    810  C6  U   B  71     -22.367 -19.891   9.695  0.00  0.00    +0.000 A 
ATOM    811  H   U   B  71     -24.566 -20.372  12.574  0.00  0.00    +0.000 HD
ENDBRANCH 802 803
BRANCH 801 812
ATOM    812  O2' U   B  71     -23.093 -23.363   8.137  0.00  0.00    +0.000 OA
ATOM    813  H   U   B  71     -23.018 -24.174   8.665  0.00  0.00    +0.000 HD
ENDBRANCH 801 812
BRANCH 800 814
ATOM    814  O3' U   B  71     -20.671 -24.651   8.249  0.00  0.00    +0.000 OA
BRANCH 814 815
ATOM    815  P   C   B  72     -19.995 -25.703   7.248  0.00  0.00    +0.000 P 
ATOM    816  OP2 C   B  72     -18.697 -25.152   6.776  0.00  0.00    +0.000 OA
BRANCH 815 817
ATOM    817  OP1 C   B  72     -20.033 -27.042   7.893  0.00  0.00    +0.000 OA
ATOM    818  H   C   B  72     -19.628 -27.697   7.303  0.00  0.00    +0.000 HD
ENDBRANCH 815 817
BRANCH 815 819
ATOM    819  O5' C   B  72     -20.999 -25.723   6.013  0.00  0.00    +0.000 OA
BRANCH 819 820
ATOM    820  C5' C   B  72     -22.248 -26.404   6.100  0.00  0.00    +0.000 C 
BRANCH 820 821
ATOM    821  C4' C   B  72     -23.087 -26.164   4.873  0.00  0.00    +0.000 C 
ATOM    822  O4' C   B  72     -23.522 -24.777   4.833  0.00  0.00    +0.000 OA
ATOM    823  C3' C   B  72     -22.393 -26.361   3.545  0.00  0.00    +0.000 C 
ATOM    824  C2' C   B  72     -23.274 -25.549   2.603  0.00  0.00    +0.000 C 
ATOM    825  C1' C   B  72     -23.633 -24.351   3.485  0.00  0.00    +0.000 C 
BRANCH 825 826
ATOM    826  N1  C   B  72     -22.730 -23.194   3.273  0.00  0.00    +0.000 N 
ATOM    827  C2  C   B  72     -22.926 -22.385   2.150  0.00  0.00    +0.000 A 
ATOM    828  O2  C   B  72     -23.849 -22.657   1.367  0.00  0.00    +0.000 OA
ATOM    829  N3  C   B  72     -22.110 -21.326   1.941  0.00  0.00    +0.000 NA
ATOM    830  C4  C   B  72     -21.129 -21.060   2.804  0.00  0.00    +0.000 A 
ATOM    831  N4  C   B  72     -20.350 -20.003   2.558  0.00  0.00    +0.000 N 
ATOM    832  C5  C   B  72     -20.905 -21.866   3.954  0.00  0.00    +0.000 A 
ATOM    833  C6  C   B  72     -21.720 -22.912   4.148  0.00  0.00    +0.000 A 
ATOM    834  H   C   B  72     -20.510 -19.449   1.760  0.00  0.00    +0.000 HD
ATOM    835  H   C   B  72     -19.616 -19.778   3.174  0.00  0.00    +0.000 HD
ENDBRANCH 825 826
BRANCH 824 836
ATOM    836  O2' C   B  72     -24.453 -26.243   2.259  0.00  0.00    +0.000 OA
ATOM    837  H   C   B  72     -24.933 -26.484   3.066  0.00  0.00    +0.000 HD
ENDBRANCH 824 836
BRANCH 823 838
ATOM    838  O3' C   B  72     -22.274 -27.727   3.174  0.00  0.00    +0.000 OA
BRANCH 838 839
ATOM    839  P   U   B  73     -20.976 -28.237   2.369  0.00  0.00    +0.000 P 
ATOM    840  OP1 U   B  73     -21.103 -29.701   2.176  0.00  0.00    +0.000 OA
BRANCH 839 841
ATOM    841  OP2 U   B  73     -19.767 -27.681   3.023  0.00  0.00    +0.000 OA
ATOM    842  H   U   B  73     -18.976 -27.980   2.548  0.00  0.00    +0.000 HD
ENDBRANCH 839 841
BRANCH 839 843
ATOM    843  O5' U   B  73     -21.133 -27.534   0.947  0.00  0.00    +0.000 OA
BRANCH 843 844
ATOM    844  C5' U   B  73     -22.215 -27.858   0.083  0.00  0.00    +0.000 C 
BRANCH 844 845
ATOM    845  C4' U   B  73     -22.290 -26.905  -1.086  0.00  0.00    +0.000 C 
ATOM    846  O4' U   B  73     -22.461 -25.544  -0.607  0.00  0.00    +0.000 OA
ATOM    847  C3' U   B  73     -21.063 -26.832  -1.961  0.00  0.00    +0.000 C 
ATOM    848  C2' U   B  73     -21.230 -25.478  -2.634  0.00  0.00    +0.000 C 
ATOM    849  C1' U   B  73     -21.828 -24.645  -1.497  0.00  0.00    +0.000 C 
BRANCH 849 850
ATOM    850  N1  U   B  73     -20.804 -23.875  -0.759  0.00  0.00    +0.000 N 
ATOM    851  C2  U   B  73     -20.325 -22.715  -1.347  0.00  0.00    +0.000 A 
ATOM    852  O2  U   B  73     -20.710 -22.318  -2.432  0.00  0.00    +0.000 OA
ATOM    853  N3  U   B  73     -19.377 -22.036  -0.623  0.00  0.00    +0.000 N 
ATOM    854  C4  U   B  73     -18.871 -22.389   0.606  0.00  0.00    +0.000 A 
ATOM    855  O4  U   B  73     -18.017 -21.673   1.133  0.00  0.00    +0.000 OA
ATOM    856  C5  U   B  73     -19.413 -23.597   1.153  0.00  0.00    +0.000 A 
ATOM    857  C6  U   B  73     -20.342 -24.281   0.467  0.00  0.00    +0.000 A 
ATOM    858  H   U   B  73     -19.022 -21.210  -1.025  0.00  0.00    +0.000 HD
ENDBRANCH 849 850
BRANCH 848 859
ATOM    859  O2' U   B  73     -22.152 -25.526  -3.704  0.00  0.00    +0.000 OA
ATOM    860  H   U   B  73     -23.004 -25.858  -3.382  0.00  0.00    +0.000 HD
ENDBRANCH 848 859
BRANCH 847 861
ATOM    861  O3' U   B  73     -20.980 -27.912  -2.882  0.00  0.00    +0.000 OA
BRANCH 861 862
ATOM    862  P   C   B  74     -19.559 -28.575  -3.226  0.00  0.00    +0.000 P 
ATOM    863  OP1 C   B  74     -19.800 -29.712  -4.145  0.00  0.00    +0.000 OA
BRANCH 862 864
ATOM    864  OP2 C   B  74     -18.821 -28.794  -1.956  0.00  0.00    +0.000 OA
ATOM    865  H   C   B  74     -17.959 -29.195  -2.148  0.00  0.00    +0.000 HD
ENDBRANCH 862 864
BRANCH 862 866
ATOM    866  O5' C   B  74     -18.803 -27.428  -4.038  0.00  0.00    +0.000 OA
BRANCH 866 867
ATOM    867  C5' C   B  74     -19.279 -26.984  -5.301  0.00  0.00    +0.000 C 
BRANCH 867 868
ATOM    868  C4' C   B  74     -18.525 -25.762  -5.763  0.00  0.00    +0.000 C 
ATOM    869  O4' C   B  74     -18.726 -24.679  -4.816  0.00  0.00    +0.000 OA
ATOM    870  C3' C   B  74     -17.023 -25.907  -5.848  0.00  0.00    +0.000 C 
ATOM    871  C2' C   B  74     -16.543 -24.467  -5.726  0.00  0.00    +0.000 C 
ATOM    872  C1' C   B  74     -17.561 -23.882  -4.745  0.00  0.00    +0.000 C 
BRANCH 872 873
ATOM    873  N1  C   B  74     -17.081 -23.866  -3.346  0.00  0.00    +0.000 N 
ATOM    874  C2  C   B  74     -16.250 -22.821  -2.933  0.00  0.00    +0.000 A 
ATOM    875  O2  C   B  74     -15.934 -21.944  -3.751  0.00  0.00    +0.000 OA
ATOM    876  N3  C   B  74     -15.809 -22.787  -1.651  0.00  0.00    +0.000 NA
ATOM    877  C4  C   B  74     -16.171 -23.746  -0.794  0.00  0.00    +0.000 A 
ATOM    878  N4  C   B  74     -15.713 -23.669   0.457  0.00  0.00    +0.000 N 
ATOM    879  C5  C   B  74     -17.019 -24.822  -1.190  0.00  0.00    +0.000 A 
ATOM    880  C6  C   B  74     -17.448 -24.842  -2.460  0.00  0.00    +0.000 A 
ATOM    881  H   C   B  74     -15.128 -22.923   0.722  0.00  0.00    +0.000 HD
ATOM    882  H   C   B  74     -15.960 -24.358   1.115  0.00  0.00    +0.000 HD
ENDBRANCH 872 873
BRANCH 871 883
ATOM    883  O2' C   B  74     -16.633 -23.778  -6.955  0.00  0.00    +0.000 OA
ATOM    884  H   C   B  74     -17.547 -23.813  -7.279  0.00  0.00    +0.000 HD
ENDBRANCH 871 883
BRANCH 870 885
ATOM    885  O3' C   B  74     -16.615 -26.534  -7.058  0.00  0.00    +0.000 OA
BRANCH 885 886
ATOM    886  P   C   B  75     -15.492 -27.680  -7.059  0.00  0.00    +0.000 P 
ATOM    887  OP1 C   B  75     -15.440 -28.261  -8.418  0.00  0.00    +0.000 OA
BRANCH 886 888
ATOM    888  OP2 C   B  75     -15.723 -28.566  -5.886  0.00  0.00    +0.000 OA
ATOM    889  H   C   B  75     -16.540 -29.071  -6.018  0.00  0.00    +0.000 HD
ENDBRANCH 886 888
BRANCH 886 890
ATOM    890  O5' C   B  75     -14.143 -26.870  -6.802  0.00  0.00    +0.000 OA
BRANCH 890 891
ATOM    891  C5' C   B  75     -13.727 -25.848  -7.687  0.00  0.00    +0.000 C 
BRANCH 891 892
ATOM    892  C4' C   B  75     -12.463 -25.171  -7.206  0.00  0.00    +0.000 C 
ATOM    893  O4' C   B  75     -12.708 -24.602  -5.881  0.00  0.00    +0.000 OA
ATOM    894  C3' C   B  75     -11.260 -26.098  -7.059  0.00  0.00    +0.000 C 
ATOM    895  C2' C   B  75     -11.246 -26.406  -5.572  0.00  0.00    +0.000 C 
ATOM    896  C1' C   B  75     -11.751 -25.095  -4.971  0.00  0.00    +0.000 C 
BRANCH 896 897
ATOM    897  N1  C   B  75     -12.387 -25.274  -3.651  0.00  0.00    +0.000 N 
ATOM    898  C2  C   B  75     -11.878 -24.579  -2.547  0.00  0.00    +0.000 A 
ATOM    899  O2  C   B  75     -10.913 -23.815  -2.705  0.00  0.00    +0.000 OA
ATOM    900  N3  C   B  75     -12.456 -24.751  -1.331  0.00  0.00    +0.000 NA
ATOM    901  C4  C   B  75     -13.497 -25.576  -1.202  0.00  0.00    +0.000 A 
ATOM    902  N4  C   B  75     -14.033 -25.715   0.013  0.00  0.00    +0.000 N 
ATOM    903  C5  C   B  75     -14.032 -26.300  -2.314  0.00  0.00    +0.000 A 
ATOM    904  C6  C   B  75     -13.454 -26.118  -3.508  0.00  0.00    +0.000 A 
ATOM    905  H   C   B  75     -14.802 -26.315   0.146  0.00  0.00    +0.000 HD
ATOM    906  H   C   B  75     -13.659 -25.217   0.776  0.00  0.00    +0.000 HD
ENDBRANCH 896 897
BRANCH 895 907
ATOM    907  O2' C   B  75      -9.974 -26.751  -5.041  0.00  0.00    +0.000 OA
ATOM    908  H   C   B  75      -9.352 -26.022  -5.193  0.00  0.00    +0.000 HD
ENDBRANCH 895 907
BRANCH 894 909
ATOM    909  O3' C   B  75     -10.062 -25.419  -7.429  0.00  0.00    +0.000 OA
BRANCH 909 910
ATOM    910  P   A   B  76      -9.168 -26.028  -8.609  0.00  0.00    +0.000 P 
ATOM    911  OP2 A   B  76     -10.082 -26.571  -9.642  0.00  0.00    +0.000 OA
BRANCH 910 912
ATOM    912  OP1 A   B  76      -8.142 -25.027  -8.999  0.00  0.00    +0.000 OA
ATOM    913  H   A   B  76      -7.595 -25.387  -9.714  0.00  0.00    +0.000 HD
ENDBRANCH 910 912
BRANCH 910 914
ATOM    914  O5' A   B  76      -8.436 -27.253  -7.903  0.00  0.00    +0.000 OA
BRANCH 914 915
ATOM    915  C5' A   B  76      -7.242 -27.054  -7.154  0.00  0.00    +0.000 C 
BRANCH 915 916
ATOM    916  C4' A   B  76      -6.718 -28.377  -6.649  0.00  0.00    +0.000 C 
ATOM    917  O4' A   B  76      -7.610 -28.891  -5.625  0.00  0.00    +0.000 OA
ATOM    918  C3' A   B  76      -6.650 -29.484  -7.680  0.00  0.00    +0.000 C 
ATOM    919  C2' A   B  76      -6.731 -30.741  -6.828  0.00  0.00    +0.000 C 
ATOM    920  C1' A   B  76      -7.702 -30.297  -5.729  0.00  0.00    +0.000 C 
BRANCH 920 921
ATOM    921  N9  A   B  76      -9.094 -30.646  -6.032  0.00  0.00    +0.000 N 
ATOM    922  C8  A   B  76     -10.051 -29.860  -6.611  0.00  0.00    +0.000 A 
ATOM    923  N7  A   B  76     -11.210 -30.458  -6.739  0.00  0.00    +0.000 NA
ATOM    924  C5  A   B  76     -11.003 -31.718  -6.210  0.00  0.00    +0.000 A 
ATOM    925  C6  A   B  76     -11.848 -32.826  -6.048  0.00  0.00    +0.000 A 
ATOM    926  N1  A   B  76     -11.323 -33.934  -5.483  0.00  0.00    +0.000 NA
ATOM    927  C2  A   B  76     -10.039 -33.922  -5.104  0.00  0.00    +0.000 A 
ATOM    928  N3  A   B  76      -9.150 -32.939  -5.205  0.00  0.00    +0.000 NA
ATOM    929  C4  A   B  76      -9.703 -31.851  -5.771  0.00  0.00    +0.000 A 
BRANCH 925 930
ATOM    930  N6  A   B  76     -13.135 -32.834  -6.425  0.00  0.00    +0.000 N 
ATOM    931  H   A   B  76     -13.532 -32.033  -6.838  0.00  0.00    +0.000 HD
ATOM    932  H   A   B  76     -13.683 -33.640  -6.288  0.00  0.00    +0.000 HD
ENDBRANCH 925 930
ENDBRANCH 920 921
BRANCH 918 933
ATOM    933  O3' A   B  76      -5.474 -29.411  -8.468  0.00  0.00    +0.000 OA
ATOM    934  H   A   B  76      -4.695 -29.446  -7.891  0.00  0.00    +0.000 HD
ENDBRANCH 918 933
BRANCH 919 935
ATOM    935  O2' A   B  76      -5.483 -31.064  -6.240  0.00  0.00    +0.000 OA
ATOM    936  H   A   B  76      -5.166 -30.310  -5.718  0.00  0.00    +0.000 HD
ENDBRANCH 919 935
ENDBRANCH 915 916
ENDBRANCH 914 915
ENDBRANCH 910 914
ENDBRANCH 909 910
ENDBRANCH 894 909
ENDBRANCH 891 892
ENDBRANCH 890 891
ENDBRANCH 886 890
ENDBRANCH 885 886
ENDBRANCH 870 885
ENDBRANCH 867 868
ENDBRANCH 866 867
ENDBRANCH 862 866
ENDBRANCH 861 862
ENDBRANCH 847 861
ENDBRANCH 844 845
ENDBRANCH 843 844
ENDBRANCH 839 843
ENDBRANCH 838 839
ENDBRANCH 823 838
ENDBRANCH 820 821
ENDBRANCH 819 820
ENDBRANCH 815 819
ENDBRANCH 814 815
ENDBRANCH 800 814
ENDBRANCH 797 798
ENDBRANCH 796 797
ENDBRANCH 792 796
ENDBRANCH 791 792
ENDBRANCH 774 791
ENDBRANCH 771 772
ENDBRANCH 770 771
ENDBRANCH 766 770
ENDBRANCH 765 766
ENDBRANCH 748 765
ENDBRANCH 745 746
ENDBRANCH 744 745
ENDBRANCH 740 744
ENDBRANCH 739 740
ENDBRANCH 722 739
ENDBRANCH 719 720
ENDBRANCH 718 719
ENDBRANCH 714 718
ENDBRANCH 713 714
ENDBRANCH 696 713
ENDBRANCH 693 694
ENDBRANCH 692 693
ENDBRANCH 688 692
ENDBRANCH 687 688
ENDBRANCH 670 687
ENDBRANCH 667 668
ENDBRANCH 666 667
ENDBRANCH 662 666
ENDBRANCH 661 662
ENDBRANCH 646 661
ENDBRANCH 643 644
ENDBRANCH 642 643
ENDBRANCH 638 642
ENDBRANCH 637 638
ENDBRANCH 620 637
ENDBRANCH 617 618
ENDBRANCH 616 617
ENDBRANCH 612 616
ENDBRANCH 611 612
ENDBRANCH 597 611
ENDBRANCH 594 595
ENDBRANCH 593 594
ENDBRANCH 589 593
ENDBRANCH 588 589
ENDBRANCH 573 588
ENDBRANCH 570 571
ENDBRANCH 569 570
ENDBRANCH 565 569
ENDBRANCH 564 565
ENDBRANCH 547 564
ENDBRANCH 544 545
ENDBRANCH 543 544
ENDBRANCH 539 543
ENDBRANCH 538 539
ENDBRANCH 519 538
ENDBRANCH 516 517
ENDBRANCH 515 516
ENDBRANCH 511 515
ENDBRANCH 510 511
ENDBRANCH 493 510
ENDBRANCH 490 491
ENDBRANCH 489 490
ENDBRANCH 485 489
ENDBRANCH 484 485
ENDBRANCH 469 484
ENDBRANCH 466 467
ENDBRANCH 465 466
ENDBRANCH 461 465
ENDBRANCH 460 461
ENDBRANCH 443 460
ENDBRANCH 440 441
ENDBRANCH 439 440
ENDBRANCH 435 439
ENDBRANCH 434 435
ENDBRANCH 417 434
ENDBRANCH 414 415
ENDBRANCH 413 414
ENDBRANCH 409 413
ENDBRANCH 408 409
ENDBRANCH 391 408
ENDBRANCH 388 389
ENDBRANCH 387 388
ENDBRANCH 383 387
ENDBRANCH 382 383
ENDBRANCH 365 382
ENDBRANCH 362 363
ENDBRANCH 361 362
ENDBRANCH 357 361
ENDBRANCH 356 357
ENDBRANCH 339 356
ENDBRANCH 336 337
ENDBRANCH 335 336
ENDBRANCH 331 335
ENDBRANCH 330 331
ENDBRANCH 316 330
ENDBRANCH 313 314
ENDBRANCH 312 313
ENDBRANCH 308 312
ENDBRANCH 307 308
ENDBRANCH 293 307
ENDBRANCH 290 291
ENDBRANCH 289 290
ENDBRANCH 285 289
ENDBRANCH 284 285
ENDBRANCH 270 284
ENDBRANCH 267 268
ENDBRANCH 266 267
ENDBRANCH 262 266
ENDBRANCH 261 262
ENDBRANCH 247 261
ENDBRANCH 244 245
ENDBRANCH 243 244
ENDBRANCH 239 243
ENDBRANCH 238 239
ENDBRANCH 221 238
ENDBRANCH 218 219
ENDBRANCH 217 218
ENDBRANCH 213 217
ENDBRANCH 212 213
ENDBRANCH 198 212
ENDBRANCH 195 196
ENDBRANCH 194 195
ENDBRANCH 190 194
ENDBRANCH 189 190
ENDBRANCH 175 189
ENDBRANCH 172 173
ENDBRANCH 171 172
ENDBRANCH 167 171
ENDBRANCH 166 167
ENDBRANCH 152 166
ENDBRANCH 149 150
ENDBRANCH 148 149
ENDBRANCH 144 148
ENDBRANCH 143 144
ENDBRANCH 128 143
ENDBRANCH 125 126
ENDBRANCH 124 125
ENDBRANCH 120 124
ENDBRANCH 119 120
ENDBRANCH 102 119
ENDBRANCH  99 100
ENDBRANCH  98  99
ENDBRANCH  94  98
ENDBRANCH  93  94
ENDBRANCH  79  93
ENDBRANCH  76  77
ENDBRANCH  75  76
ENDBRANCH  71  75
ENDBRANCH  70  71
ENDBRANCH  56  70
ENDBRANCH  53  54
ENDBRANCH  52  53
ENDBRANCH  48  52
ENDBRANCH  47  48
ENDBRANCH  32  47
ENDBRANCH  29  30
ENDBRANCH  28  29
ENDBRANCH  24  28
ENDBRANCH  23  24
ENDBRANCH   9  23
ENDBRANCH   6   7
ENDBRANCH   5   6
ENDBRANCH   1   5
BRANCH   1 937
ATOM    937  O3' U   B  38      36.154 -33.505  -8.685  0.00  0.00    +0.000 OA
BRANCH 937 940
ATOM    938  C4' U   B  38      34.840 -34.061  -6.704  0.00  0.00    +0.000 C 
ATOM    939  O4' U   B  38      33.919 -33.305  -5.869  0.00  0.00    +0.000 OA
ATOM    940  C3' U   B  38      35.577 -32.996  -7.491  0.00  0.00    +0.000 C 
ATOM    941  C2' U   B  38      34.486 -31.963  -7.750  0.00  0.00    +0.000 C 
ATOM    942  C1' U   B  38      33.678 -32.038  -6.445  0.00  0.00    +0.000 C 
BRANCH 942 943
ATOM    943  N1  U   B  38      34.061 -30.984  -5.478  0.00  0.00    +0.000 N 
ATOM    944  C2  U   B  38      33.479 -29.737  -5.630  0.00  0.00    +0.000 A 
ATOM    945  O2  U   B  38      32.679 -29.480  -6.510  0.00  0.00    +0.000 OA
ATOM    946  N3  U   B  38      33.871 -28.795  -4.709  0.00  0.00    +0.000 N 
ATOM    947  C4  U   B  38      34.765 -28.968  -3.675  0.00  0.00    +0.000 A 
ATOM    948  O4  U   B  38      35.015 -28.022  -2.931  0.00  0.00    +0.000 OA
ATOM    949  C5  U   B  38      35.322 -30.283  -3.581  0.00  0.00    +0.000 A 
ATOM    950  C6  U   B  38      34.957 -31.225  -4.466  0.00  0.00    +0.000 A 
ATOM    951  H   U   B  38      33.470 -27.900  -4.798  0.00  0.00    +0.000 HD
ENDBRANCH 942 943
BRANCH 941 952
ATOM    952  O2' U   B  38      33.654 -32.339  -8.830  0.00  0.00    +0.000 OA
ATOM    953  H   U   B  38      33.273 -33.214  -8.655  0.00  0.00    +0.000 HD
ENDBRANCH 941 952
BRANCH 938 954
ATOM    954  C5' U   B  38      35.695 -34.951  -5.832  0.00  0.00    +0.000 C 
BRANCH 954 955
ATOM    955  O5' U   B  38      36.468 -34.182  -4.920  0.00  0.00    +0.000 OA
BRANCH 955 956
ATOM    956  P   U   B  38      37.254 -34.880  -3.723  0.00  0.00    +0.000 P 
ATOM    957  OP1 U   B  38      38.067 -35.984  -4.281  0.00  0.00    +0.000 OA
BRANCH 956 958
ATOM    958  OP2 U   B  38      37.910 -33.810  -2.925  0.00  0.00    +0.000 OA
ATOM    959  H   U   B  38      38.620 -33.406  -3.448  0.00  0.00    +0.000 HD
ENDBRANCH 956 958
BRANCH 956 960
ATOM    960  O3' A   B  37      36.082 -35.527  -2.821  0.00  0.00    +0.000 OA
BRANCH 960 963
ATOM    961  C4' A   B  37      34.938 -35.422  -0.666  0.00  0.00    +0.000 C 
ATOM    962  O4' A   B  37      33.763 -34.713  -0.188  0.00  0.00    +0.000 OA
ATOM    963  C3' A   B  37      35.294 -34.713  -1.961  0.00  0.00    +0.000 C 
ATOM    964  C2' A   B  37      33.927 -34.376  -2.536  0.00  0.00    +0.000 C 
ATOM    965  C1' A   B  37      33.148 -34.032  -1.265  0.00  0.00    +0.000 C 
BRANCH 965 966
ATOM    966  N9  A   B  37      33.164 -32.590  -0.975  0.00  0.00    +0.000 N 
ATOM    967  C8  A   B  37      33.900 -31.927  -0.025  0.00  0.00    +0.000 A 
ATOM    968  N7  A   B  37      33.697 -30.632  -0.011  0.00  0.00    +0.000 NA
ATOM    969  C5  A   B  37      32.763 -30.430  -1.018  0.00  0.00    +0.000 A 
ATOM    970  C6  A   B  37      32.132 -29.274  -1.508  0.00  0.00    +0.000 A 
ATOM    971  N6  A   B  37      32.362 -28.048  -1.028  0.00  0.00    +0.000 N 
ATOM    972  N1  A   B  37      31.254 -29.417  -2.520  0.00  0.00    +0.000 NA
ATOM    973  C2  A   B  37      31.026 -30.645  -3.004  0.00  0.00    +0.000 A 
ATOM    974  N3  A   B  37      31.555 -31.805  -2.626  0.00  0.00    +0.000 NA
ATOM    975  C4  A   B  37      32.425 -31.625  -1.618  0.00  0.00    +0.000 A 
ATOM    976  H   A   B  37      31.890 -27.273  -1.411  0.00  0.00    +0.000 HD
ATOM    977  H   A   B  37      33.003 -27.920  -0.292  0.00  0.00    +0.000 HD
ENDBRANCH 965 966
BRANCH 964 978
ATOM    978  O2' A   B  37      33.325 -35.495  -3.159  0.00  0.00    +0.000 OA
ATOM    979  H   A   B  37      33.267 -36.226  -2.524  0.00  0.00    +0.000 HD
ENDBRANCH 964 978
BRANCH 961 980
ATOM    980  C5' A   B  37      36.007 -35.412   0.402  0.00  0.00    +0.000 C 
BRANCH 980 981
ATOM    981  O5' A   B  37      36.458 -34.090   0.658  0.00  0.00    +0.000 OA
BRANCH 981 982
ATOM    982  P   A   B  37      37.540 -33.802   1.789  0.00  0.00    +0.000 P 
ATOM    983  OP1 A   B  37      38.671 -34.737   1.595  0.00  0.00    +0.000 OA
BRANCH 982 984
ATOM    984  OP2 A   B  37      37.797 -32.337   1.817  0.00  0.00    +0.000 OA
ATOM    985  H   A   B  37      38.256 -32.074   1.004  0.00  0.00    +0.000 HD
ENDBRANCH 982 984
BRANCH 982 986
ATOM    986  O3' U   B  36      36.779 -34.216   3.147  0.00  0.00    +0.000 OA
BRANCH 986 989
ATOM    987  C4' U   B  36      35.743 -33.523   5.246  0.00  0.00    +0.000 C 
ATOM    988  O4' U   B  36      34.471 -32.901   5.581  0.00  0.00    +0.000 OA
ATOM    989  C3' U   B  36      35.862 -33.317   3.752  0.00  0.00    +0.000 C 
ATOM    990  C2' U   B  36      34.425 -33.513   3.285  0.00  0.00    +0.000 C 
ATOM    991  C1' U   B  36      33.648 -32.847   4.430  0.00  0.00    +0.000 C 
BRANCH 991 992
ATOM    992  N1  U   B  36      33.317 -31.434   4.137  0.00  0.00    +0.000 N 
ATOM    993  C2  U   B  36      32.241 -31.187   3.301  0.00  0.00    +0.000 A 
ATOM    994  O2  U   B  36      31.566 -32.073   2.806  0.00  0.00    +0.000 OA
ATOM    995  N3  U   B  36      31.983 -29.859   3.055  0.00  0.00    +0.000 N 
ATOM    996  C4  U   B  36      32.672 -28.773   3.551  0.00  0.00    +0.000 A 
ATOM    997  O4  U   B  36      32.313 -27.639   3.236  0.00  0.00    +0.000 OA
ATOM    998  C5  U   B  36      33.767 -29.107   4.410  0.00  0.00    +0.000 A 
ATOM    999  C6  U   B  36      34.044 -30.394   4.668  0.00  0.00    +0.000 A 
ATOM   1000  H   U   B  36      31.224 -29.662   2.460  0.00  0.00    +0.000 HD
ENDBRANCH 991 992
BRANCH 9901001
ATOM   1001  O2' U   B  36      34.073 -34.877   3.218  0.00  0.00    +0.000 OA
ATOM   1002  H   U   B  36      34.218 -35.291   4.083  0.00  0.00    +0.000 HD
ENDBRANCH 9901001
BRANCH 9871003
ATOM   1003  C5' U   B  36      36.850 -32.931   6.088  0.00  0.00    +0.000 C 
BRANCH10031004
ATOM   1004  O5' U   B  36      36.980 -31.534   5.866  0.00  0.00    +0.000 OA
BRANCH10041005
ATOM   1005  P   U   B  36      38.008 -30.660   6.715  0.00  0.00    +0.000 P 
ATOM   1006  OP2 U   B  36      37.918 -29.255   6.235  0.00  0.00    +0.000 OA
BRANCH10051007
ATOM   1007  OP1 U   B  36      39.316 -31.355   6.715  0.00  0.00    +0.000 OA
ATOM   1008  H   U   B  36      39.694 -31.333   5.822  0.00  0.00    +0.000 HD
ENDBRANCH10051007
BRANCH10051009
ATOM   1009  O3' A   B  35      37.416 -30.720   8.215  0.00  0.00    +0.000 OA
BRANCH10091012
ATOM   1010  C4' A   B  35      36.124 -29.597   9.968  0.00  0.00    +0.000 C 
ATOM   1011  O4' A   B  35      34.701 -29.417  10.198  0.00  0.00    +0.000 OA
ATOM   1012  C3' A   B  35      36.193 -30.077   8.532  0.00  0.00    +0.000 C 
ATOM   1013  C2' A   B  35      34.995 -31.011   8.465  0.00  0.00    +0.000 C 
ATOM   1014  C1' A   B  35      33.973 -30.247   9.307  0.00  0.00    +0.000 C 
BRANCH10141015
ATOM   1015  N9  A   B  35      33.097 -29.413   8.468  0.00  0.00    +0.000 N 
ATOM   1016  C8  A   B  35      33.097 -28.052   8.302  0.00  0.00    +0.000 A 
ATOM   1017  N7  A   B  35      32.179 -27.628   7.464  0.00  0.00    +0.000 NA
ATOM   1018  C5  A   B  35      31.536 -28.789   7.052  0.00  0.00    +0.000 A 
ATOM   1019  C6  A   B  35      30.473 -29.026   6.168  0.00  0.00    +0.000 A 
ATOM   1020  N1  A   B  35      30.076 -30.300   5.979  0.00  0.00    +0.000 NA
ATOM   1021  C2  A   B  35      30.711 -31.271   6.643  0.00  0.00    +0.000 A 
ATOM   1022  N3  A   B  35      31.721 -31.175   7.503  0.00  0.00    +0.000 NA
ATOM   1023  C4  A   B  35      32.090 -29.893   7.664  0.00  0.00    +0.000 A 
BRANCH10191024
ATOM   1024  N6  A   B  35      29.837 -28.056   5.498  0.00  0.00    +0.000 N 
ATOM   1025  H   A   B  35      29.096 -28.282   4.890  0.00  0.00    +0.000 HD
ATOM   1026  H   A   B  35      30.110 -27.117   5.614  0.00  0.00    +0.000 HD
ENDBRANCH10191024
ENDBRANCH10141015
BRANCH10131027
ATOM   1027  O2' A   B  35      35.260 -32.258   9.076  0.00  0.00    +0.000 OA
ATOM   1028  H   A   B  35      35.538 -32.116   9.994  0.00  0.00    +0.000 HD
ENDBRANCH10131027
BRANCH10101029
ATOM   1029  C5' A   B  35      36.871 -28.324  10.293  0.00  0.00    +0.000 C 
BRANCH10291030
ATOM   1030  O5' A   B  35      36.317 -27.203   9.615  0.00  0.00    +0.000 OA
BRANCH10301031
ATOM   1031  P   A   B  35      36.711 -25.719  10.050  0.00  0.00    +0.000 P 
ATOM   1032  OP2 A   B  35      36.058 -24.781   9.103  0.00  0.00    +0.000 OA
BRANCH10311033
ATOM   1033  OP1 A   B  35      38.178 -25.668  10.238  0.00  0.00    +0.000 OA
ATOM   1034  H   A   B  35      38.618 -25.770   9.379  0.00  0.00    +0.000 HD
ENDBRANCH10311033
BRANCH10311035
ATOM   1035  O3' A   B  34      36.014 -25.546  11.496  0.00  0.00    +0.000 OA
BRANCH10351038
ATOM   1036  C4' A   B  34      34.167 -24.584  12.791  0.00  0.00    +0.000 C 
ATOM   1037  O4' A   B  34      32.777 -24.963  12.983  0.00  0.00    +0.000 OA
ATOM   1038  C3' A   B  34      34.607 -25.422  11.610  0.00  0.00    +0.000 C 
ATOM   1039  C2' A   B  34      33.903 -26.742  11.890  0.00  0.00    +0.000 C 
ATOM   1040  C1' A   B  34      32.560 -26.252  12.436  0.00  0.00    +0.000 C 
BRANCH10401041
ATOM   1041  N9  A   B  34      31.546 -26.162  11.376  0.00  0.00    +0.000 N 
ATOM   1042  C8  A   B  34      31.115 -25.059  10.692  0.00  0.00    +0.000 A 
ATOM   1043  N7  A   B  34      30.196 -25.328   9.794  0.00  0.00    +0.000 NA
ATOM   1044  C5  A   B  34      30.014 -26.698   9.892  0.00  0.00    +0.000 A 
ATOM   1045  C6  A   B  34      29.180 -27.600   9.215  0.00  0.00    +0.000 A 
ATOM   1046  N1  A   B  34      29.246 -28.901   9.555  0.00  0.00    +0.000 NA
ATOM   1047  C2  A   B  34      30.097 -29.270  10.520  0.00  0.00    +0.000 A 
ATOM   1048  N3  A   B  34      30.931 -28.516  11.234  0.00  0.00    +0.000 NA
ATOM   1049  C4  A   B  34      30.839 -27.225  10.864  0.00  0.00    +0.000 A 
BRANCH10451050
ATOM   1050  N6  A   B  34      28.330 -27.236   8.247  0.00  0.00    +0.000 N 
ATOM   1051  H   A   B  34      27.768 -27.913   7.805  0.00  0.00    +0.000 HD
ATOM   1052  H   A   B  34      28.267 -26.291   7.977  0.00  0.00    +0.000 HD
ENDBRANCH10451050
ENDBRANCH10401041
BRANCH10391053
ATOM   1053  O2' A   B  34      34.564 -27.493  12.889  0.00  0.00    +0.000 OA
ATOM   1054  H   A   B  34      34.640 -26.961  13.696  0.00  0.00    +0.000 HD
ENDBRANCH10391053
BRANCH10361055
ATOM   1055  C5' A   B  34      34.278 -23.085  12.628  0.00  0.00    +0.000 C 
BRANCH10551056
ATOM   1056  O5' A   B  34      33.592 -22.637  11.466  0.00  0.00    +0.000 OA
BRANCH10561057
ATOM   1057  P   A   B  34      33.379 -21.078  11.206  0.00  0.00    +0.000 P 
ATOM   1058  OP2 A   B  34      32.679 -20.927   9.905  0.00  0.00    +0.000 OA
BRANCH10571059
ATOM   1059  OP1 A   B  34      34.664 -20.384  11.435  0.00  0.00    +0.000 OA
ATOM   1060  H   A   B  34      35.292 -20.628  10.737  0.00  0.00    +0.000 HD
ENDBRANCH10571059
BRANCH10571061
ATOM   1061  O3' U   B  33      32.358 -20.651  12.383  0.00  0.00    +0.000 OA
BRANCH10611064
ATOM   1062  C4' U   B  33      30.059 -19.992  12.901  0.00  0.00    +0.000 C 
ATOM   1063  O4' U   B  33      28.839 -20.732  13.183  0.00  0.00    +0.000 OA
ATOM   1064  C3' U   B  33      30.992 -21.031  12.322  0.00  0.00    +0.000 C 
ATOM   1065  C2' U   B  33      30.660 -22.257  13.164  0.00  0.00    +0.000 C 
ATOM   1066  C1' U   B  33      29.139 -22.108  13.314  0.00  0.00    +0.000 C 
BRANCH10661067
ATOM   1067  N1  U   B  33      28.402 -22.861  12.277  0.00  0.00    +0.000 N 
ATOM   1068  C2  U   B  33      28.189 -24.212  12.505  0.00  0.00    +0.000 A 
ATOM   1069  O2  U   B  33      28.573 -24.785  13.511  0.00  0.00    +0.000 OA
ATOM   1070  N3  U   B  33      27.505 -24.873  11.512  0.00  0.00    +0.000 N 
ATOM   1071  C4  U   B  33      27.026 -24.332  10.337  0.00  0.00    +0.000 A 
ATOM   1072  O4  U   B  33      26.433 -25.054   9.539  0.00  0.00    +0.000 OA
ATOM   1073  C5  U   B  33      27.288 -22.935  10.173  0.00  0.00    +0.000 A 
ATOM   1074  C6  U   B  33      27.951 -22.267  11.126  0.00  0.00    +0.000 A 
ATOM   1075  H   U   B  33      27.340 -25.833  11.655  0.00  0.00    +0.000 HD
ENDBRANCH10661067
BRANCH10651076
ATOM   1076  O2' U   B  33      31.257 -22.202  14.442  0.00  0.00    +0.000 OA
ATOM   1077  H   U   B  33      30.983 -21.387  14.892  0.00  0.00    +0.000 HD
ENDBRANCH10651076
BRANCH10621078
ATOM   1078  C5' U   B  33      29.752 -18.813  12.009  0.00  0.00    +0.000 C 
BRANCH10781079
ATOM   1079  O5' U   B  33      29.299 -19.238  10.727  0.00  0.00    +0.000 OA
BRANCH10791080
ATOM   1080  P   U   B  33      28.674 -18.200   9.692  0.00  0.00    +0.000 P 
ATOM   1081  OP2 U   B  33      28.250 -18.956   8.487  0.00  0.00    +0.000 OA
BRANCH10801082
ATOM   1082  OP1 U   B  33      29.601 -17.058   9.559  0.00  0.00    +0.000 OA
ATOM   1083  H   U   B  33      29.235 -16.416   8.931  0.00  0.00    +0.000 HD
ENDBRANCH10801082
BRANCH10801084
ATOM   1084  O3' A   B  32      27.350 -17.686  10.451  0.00  0.00    +0.000 OA
BRANCH10841087
ATOM   1085  C4' A   B  32      24.909 -17.736  10.440  0.00  0.00    +0.000 C 
ATOM   1086  O4' A   B  32      23.917 -18.591  11.072  0.00  0.00    +0.000 OA
ATOM   1087  C3' A   B  32      26.200 -18.519  10.551  0.00  0.00    +0.000 C 
ATOM   1088  C2' A   B  32      26.056 -19.194  11.907  0.00  0.00    +0.000 C 
ATOM   1089  C1' A   B  32      24.559 -19.525  11.915  0.00  0.00    +0.000 C 
BRANCH10891090
ATOM   1090  N9  A   B  32      24.279 -20.878  11.409  0.00  0.00    +0.000 N 
ATOM   1091  C8  A   B  32      23.864 -21.237  10.152  0.00  0.00    +0.000 A 
ATOM   1092  N7  A   B  32      23.691 -22.532  10.005  0.00  0.00    +0.000 NA
ATOM   1093  C5  A   B  32      24.015 -23.060  11.245  0.00  0.00    +0.000 A 
ATOM   1094  C6  A   B  32      24.035 -24.371  11.741  0.00  0.00    +0.000 A 
ATOM   1095  N1  A   B  32      24.410 -24.555  13.022  0.00  0.00    +0.000 NA
ATOM   1096  C2  A   B  32      24.736 -23.486  13.754  0.00  0.00    +0.000 A 
ATOM   1097  N3  A   B  32      24.754 -22.200  13.402  0.00  0.00    +0.000 NA
ATOM   1098  C4  A   B  32      24.380 -22.052  12.120  0.00  0.00    +0.000 A 
BRANCH10941099
ATOM   1099  N6  A   B  32      23.707 -25.440  11.006  0.00  0.00    +0.000 N 
ATOM   1100  H   A   B  32      23.430 -25.326  10.068  0.00  0.00    +0.000 HD
ATOM   1101  H   A   B  32      23.742 -26.340  11.403  0.00  0.00    +0.000 HD
ENDBRANCH10941099
ENDBRANCH10891090
BRANCH10881102
ATOM   1102  O2' A   B  32      26.337 -18.301  12.973  0.00  0.00    +0.000 OA
ATOM   1103  H   A   B  32      25.761 -17.524  12.904  0.00  0.00    +0.000 HD
ENDBRANCH10881102
BRANCH10851104
ATOM   1104  C5' A   B  32      24.469 -17.399   9.035  0.00  0.00    +0.000 C 
BRANCH11041105
ATOM   1105  O5' A   B  32      24.409 -18.573   8.232  0.00  0.00    +0.000 OA
BRANCH11051106
ATOM   1106  P   A   B  32      23.756 -18.540   6.779  0.00  0.00    +0.000 P 
ATOM   1107  OP1 A   B  32      24.353 -17.411   6.030  0.00  0.00    +0.000 OA
BRANCH11061108
ATOM   1108  OP2 A   B  32      23.815 -19.912   6.218  0.00  0.00    +0.000 OA
ATOM   1109  H   A   B  32      23.422 -19.916   5.331  0.00  0.00    +0.000 HD
ENDBRANCH11061108
BRANCH11061110
ATOM   1110  O3' A   B  31      22.223 -18.192   7.075  0.00  0.00    +0.000 OA
BRANCH11101113
ATOM   1111  C4' A   B  31      19.909 -18.969   7.123  0.00  0.00    +0.000 C 
ATOM   1112  O4' A   B  31      19.099 -19.655   8.118  0.00  0.00    +0.000 OA
ATOM   1113  C3' A   B  31      21.333 -19.173   7.596  0.00  0.00    +0.000 C 
ATOM   1114  C2' A   B  31      21.186 -19.107   9.110  0.00  0.00    +0.000 C 
ATOM   1115  C1' A   B  31      19.841 -19.812   9.309  0.00  0.00    +0.000 C 
BRANCH11151116
ATOM   1116  N9  A   B  31      19.992 -21.251   9.579  0.00  0.00    +0.000 N 
ATOM   1117  C8  A   B  31      19.831 -22.295   8.702  0.00  0.00    +0.000 A 
ATOM   1118  N7  A   B  31      20.027 -23.474   9.245  0.00  0.00    +0.000 NA
ATOM   1119  C5  A   B  31      20.338 -23.189  10.566  0.00  0.00    +0.000 A 
ATOM   1120  C6  A   B  31      20.650 -24.005  11.662  0.00  0.00    +0.000 A 
ATOM   1121  N6  A   B  31      20.702 -25.340  11.593  0.00  0.00    +0.000 N 
ATOM   1122  N1  A   B  31      20.912 -23.407  12.840  0.00  0.00    +0.000 NA
ATOM   1123  C2  A   B  31      20.859 -22.073  12.907  0.00  0.00    +0.000 A 
ATOM   1124  N3  A   B  31      20.574 -21.193  11.944  0.00  0.00    +0.000 NA
ATOM   1125  C4  A   B  31      20.320 -21.823  10.784  0.00  0.00    +0.000 A 
ATOM   1126  H   A   B  31      20.514 -25.797  10.741  0.00  0.00    +0.000 HD
ATOM   1127  H   A   B  31      20.928 -25.866  12.394  0.00  0.00    +0.000 HD
ENDBRANCH11151116
BRANCH11141128
ATOM   1128  O2' A   B  31      21.079 -17.770   9.568  0.00  0.00    +0.000 OA
ATOM   1129  H   A   B  31      20.336 -17.334   9.122  0.00  0.00    +0.000 HD
ENDBRANCH11141128
BRANCH11111130
ATOM   1130  C5' A   B  31      19.590 -19.508   5.748  0.00  0.00    +0.000 C 
BRANCH11301131
ATOM   1131  O5' A   B  31      19.863 -20.904   5.676  0.00  0.00    +0.000 OA
BRANCH11311132
ATOM   1132  P   A   B  31      19.365 -21.775   4.437  0.00  0.00    +0.000 P 
ATOM   1133  OP1 A   B  31      19.764 -21.077   3.191  0.00  0.00    +0.000 OA
BRANCH11321134
ATOM   1134  OP2 A   B  31      19.791 -23.177   4.664  0.00  0.00    +0.000 OA
ATOM   1135  H   A   B  31      19.499 -23.728   3.921  0.00  0.00    +0.000 HD
ENDBRANCH11321134
BRANCH11321136
ATOM   1136  O3' A   B  30      17.776 -21.718   4.549  0.00  0.00    +0.000 OA
BRANCH11361139
ATOM   1137  C4' A   B  30      15.672 -22.832   5.088  0.00  0.00    +0.000 C 
ATOM   1138  O4' A   B  30      14.969 -23.102   6.333  0.00  0.00    +0.000 OA
ATOM   1139  C3' A   B  30      17.081 -22.490   5.525  0.00  0.00    +0.000 C 
ATOM   1140  C2' A   B  30      16.844 -21.736   6.826  0.00  0.00    +0.000 C 
ATOM   1141  C1' A   B  30      15.664 -22.514   7.413  0.00  0.00    +0.000 C 
BRANCH11411142
ATOM   1142  N9  A   B  30      16.092 -23.581   8.331  0.00  0.00    +0.000 N 
ATOM   1143  C8  A   B  30      16.177 -24.927   8.081  0.00  0.00    +0.000 A 
ATOM   1144  N7  A   B  30      16.585 -25.631   9.113  0.00  0.00    +0.000 NA
ATOM   1145  C5  A   B  30      16.782 -24.686  10.108  0.00  0.00    +0.000 A 
ATOM   1146  C6  A   B  30      17.211 -24.787  11.440  0.00  0.00    +0.000 A 
ATOM   1147  N6  A   B  30      17.533 -25.947  12.023  0.00  0.00    +0.000 N 
ATOM   1148  N1  A   B  30      17.303 -23.652  12.162  0.00  0.00    +0.000 NA
ATOM   1149  C2  A   B  30      16.982 -22.494  11.578  0.00  0.00    +0.000 A 
ATOM   1150  N3  A   B  30      16.562 -22.267  10.331  0.00  0.00    +0.000 NA
ATOM   1151  C4  A   B  30      16.482 -23.418   9.639  0.00  0.00    +0.000 A 
ATOM   1152  H   A   B  30      17.473 -26.787  11.514  0.00  0.00    +0.000 HD
ATOM   1153  H   A   B  30      17.830 -25.960  12.961  0.00  0.00    +0.000 HD
ENDBRANCH11411142
BRANCH11401154
ATOM   1154  O2' A   B  30      16.441 -20.395   6.591  0.00  0.00    +0.000 OA
ATOM   1155  H   A   B  30      15.648 -20.389   6.032  0.00  0.00    +0.000 HD
ENDBRANCH11401154
BRANCH11371156
ATOM   1156  C5' A   B  30      15.538 -24.020   4.163  0.00  0.00    +0.000 C 
BRANCH11561157
ATOM   1157  O5' A   B  30      16.024 -25.206   4.787  0.00  0.00    +0.000 OA
BRANCH11571158
ATOM   1158  P   A   B  30      15.708 -26.647   4.176  0.00  0.00    +0.000 P 
ATOM   1159  OP1 A   B  30      16.022 -26.614   2.727  0.00  0.00    +0.000 OA
BRANCH11581160
ATOM   1160  OP2 A   B  30      16.354 -27.663   5.045  0.00  0.00    +0.000 OA
ATOM   1161  H   A   B  30      16.176 -28.549   4.694  0.00  0.00    +0.000 HD
ENDBRANCH11581160
BRANCH11581162
ATOM   1162  O3' A   B  29      14.117 -26.789   4.338  0.00  0.00    +0.000 OA
BRANCH11621165
ATOM   1163  C4' A   B  29      12.209 -27.802   5.479  0.00  0.00    +0.000 C 
ATOM   1164  O4' A   B  29      11.540 -27.539   6.741  0.00  0.00    +0.000 OA
ATOM   1165  C3' A   B  29      13.530 -27.073   5.604  0.00  0.00    +0.000 C 
ATOM   1166  C2' A   B  29      13.135 -25.822   6.373  0.00  0.00    +0.000 C 
ATOM   1167  C1' A   B  29      12.085 -26.379   7.338  0.00  0.00    +0.000 C 
BRANCH11671168
ATOM   1168  N9  A   B  29      12.655 -26.743   8.643  0.00  0.00    +0.000 N 
ATOM   1169  C8  A   B  29      12.939 -27.995   9.125  0.00  0.00    +0.000 A 
ATOM   1170  N7  A   B  29      13.432 -27.990  10.342  0.00  0.00    +0.000 NA
ATOM   1171  C5  A   B  29      13.476 -26.646  10.681  0.00  0.00    +0.000 A 
ATOM   1172  C6  A   B  29      13.899 -25.973  11.837  0.00  0.00    +0.000 A 
ATOM   1173  N6  A   B  29      14.381 -26.595  12.920  0.00  0.00    +0.000 N 
ATOM   1174  N1  A   B  29      13.814 -24.627  11.850  0.00  0.00    +0.000 NA
ATOM   1175  C2  A   B  29      13.333 -24.003  10.770  0.00  0.00    +0.000 A 
ATOM   1176  N3  A   B  29      12.900 -24.525   9.623  0.00  0.00    +0.000 NA
ATOM   1177  C4  A   B  29      13.000 -25.867   9.642  0.00  0.00    +0.000 A 
ATOM   1178  H   A   B  29      14.452 -27.577  12.933  0.00  0.00    +0.000 HD
ATOM   1179  H   A   B  29      14.664 -26.071  13.704  0.00  0.00    +0.000 HD
ENDBRANCH11671168
BRANCH11661180
ATOM   1180  O2' A   B  29      12.524 -24.859   5.530  0.00  0.00    +0.000 OA
ATOM   1181  H   A   B  29      11.757 -25.256   5.088  0.00  0.00    +0.000 HD
ENDBRANCH11661180
BRANCH11631182
ATOM   1182  C5' A   B  29      12.292 -29.292   5.251  0.00  0.00    +0.000 C 
BRANCH11821183
ATOM   1183  O5' A   B  29      12.959 -29.940   6.328  0.00  0.00    +0.000 OA
BRANCH11831184
ATOM   1184  P   A   B  29      12.903 -31.529   6.491  0.00  0.00    +0.000 P 
ATOM   1185  OP1 A   B  29      13.243 -32.139   5.184  0.00  0.00    +0.000 OA
BRANCH11841186
ATOM   1186  OP2 A   B  29      13.689 -31.888   7.699  0.00  0.00    +0.000 OA
ATOM   1187  H   A   B  29      14.630 -31.717   7.535  0.00  0.00    +0.000 HD
ENDBRANCH11841186
BRANCH11841188
ATOM   1188  O3' U   B  28      11.343 -31.823   6.792  0.00  0.00    +0.000 OA
BRANCH11881191
ATOM   1189  C4' U   B  28       9.616 -32.442   8.407  0.00  0.00    +0.000 C 
ATOM   1190  O4' U   B  28       8.907 -31.709   9.447  0.00  0.00    +0.000 OA
ATOM   1191  C3' U   B  28      10.788 -31.545   8.070  0.00  0.00    +0.000 C 
ATOM   1192  C2' U   B  28      10.168 -30.157   8.165  0.00  0.00    +0.000 C 
ATOM   1193  C1' U   B  28       9.226 -30.333   9.363  0.00  0.00    +0.000 C 
BRANCH11931194
ATOM   1194  N1  U   B  28       9.850 -29.906  10.638  0.00  0.00    +0.000 N 
ATOM   1195  C2  U   B  28       9.896 -28.545  10.896  0.00  0.00    +0.000 A 
ATOM   1196  O2  U   B  28       9.455 -27.708  10.128  0.00  0.00    +0.000 OA
ATOM   1197  N3  U   B  28      10.480 -28.197  12.092  0.00  0.00    +0.000 N 
ATOM   1198  C4  U   B  28      11.012 -29.052  13.033  0.00  0.00    +0.000 A 
ATOM   1199  O4  U   B  28      11.503 -28.585  14.061  0.00  0.00    +0.000 OA
ATOM   1200  C5  U   B  28      10.926 -30.441  12.694  0.00  0.00    +0.000 A 
ATOM   1201  C6  U   B  28      10.362 -30.810  11.536  0.00  0.00    +0.000 A 
ATOM   1202  H   U   B  28      10.522 -27.235  12.298  0.00  0.00    +0.000 HD
ENDBRANCH11931194
BRANCH11921203
ATOM   1203  O2' U   B  28       9.396 -29.845   7.020  0.00  0.00    +0.000 OA
ATOM   1204  H   U   B  28       8.716 -30.525   6.894  0.00  0.00    +0.000 HD
ENDBRANCH11921203
BRANCH11891205
ATOM   1205  C5' U   B  28       9.957 -33.827   8.902  0.00  0.00    +0.000 C 
BRANCH12051206
ATOM   1206  O5' U   B  28      10.753 -33.776  10.081  0.00  0.00    +0.000 OA
BRANCH12061207
ATOM   1207  P   U   B  28      10.983 -35.076  10.977  0.00  0.00    +0.000 P 
ATOM   1208  OP1 U   B  28      11.434 -36.174  10.090  0.00  0.00    +0.000 OA
BRANCH12071209
ATOM   1209  OP2 U   B  28      11.811 -34.688  12.151  0.00  0.00    +0.000 OA
ATOM   1210  H   U   B  28      12.708 -34.469  11.855  0.00  0.00    +0.000 HD
ENDBRANCH12071209
BRANCH12071211
ATOM   1211  O3' U   B  27       9.501 -35.434  11.499  0.00  0.00    +0.000 OA
BRANCH12111214
ATOM   1212  C4' U   B  27       7.920 -35.473  13.362  0.00  0.00    +0.000 C 
ATOM   1213  O4' U   B  27       7.064 -34.469  13.975  0.00  0.00    +0.000 OA
ATOM   1214  C3' U   B  27       8.889 -34.664  12.525  0.00  0.00    +0.000 C 
ATOM   1215  C2' U   B  27       7.997 -33.550  11.994  0.00  0.00    +0.000 C 
ATOM   1216  C1' U   B  27       7.095 -33.281  13.205  0.00  0.00    +0.000 C 
BRANCH12161217
ATOM   1217  N1  U   B  27       7.595 -32.175  14.052  0.00  0.00    +0.000 N 
ATOM   1218  C2  U   B  27       7.357 -30.882  13.617  0.00  0.00    +0.000 A 
ATOM   1219  O2  U   B  27       6.765 -30.628  12.583  0.00  0.00    +0.000 OA
ATOM   1220  N3  U   B  27       7.840 -29.890  14.438  0.00  0.00    +0.000 N 
ATOM   1221  C4  U   B  27       8.521 -30.057  15.624  0.00  0.00    +0.000 A 
ATOM   1222  O4  U   B  27       8.893 -29.065  16.251  0.00  0.00    +0.000 OA
ATOM   1223  C5  U   B  27       8.728 -31.421  16.005  0.00  0.00    +0.000 A 
ATOM   1224  C6  U   B  27       8.270 -32.408  15.225  0.00  0.00    +0.000 A 
ATOM   1225  H   U   B  27       7.683 -28.963  14.148  0.00  0.00    +0.000 HD
ENDBRANCH12161217
BRANCH12151226
ATOM   1226  O2' U   B  27       7.194 -33.987  10.914  0.00  0.00    +0.000 OA
ATOM   1227  H   U   B  27       6.668 -34.753  11.192  0.00  0.00    +0.000 HD
ENDBRANCH12151226
BRANCH12121228
ATOM   1228  C5' U   B  27       8.533 -36.342  14.434  0.00  0.00    +0.000 C 
BRANCH12281229
ATOM   1229  O5' U   B  27       9.316 -35.573  15.342  0.00  0.00    +0.000 OA
BRANCH12291230
ATOM   1230  P   U   B  27       9.808 -36.188  16.730  0.00  0.00    +0.000 P 
ATOM   1231  OP1 U   B  27      10.495 -37.471  16.447  0.00  0.00    +0.000 OA
BRANCH12301232
ATOM   1232  OP2 U   B  27      10.519 -35.122  17.484  0.00  0.00    +0.000 OA
ATOM   1233  H   U   B  27      11.354 -34.911  17.037  0.00  0.00    +0.000 HD
ENDBRANCH12301232
BRANCH12301234
ATOM   1234  O3' U   B  26       8.426 -36.520  17.492  0.00  0.00    +0.000 OA
BRANCH12341237
ATOM   1235  C4' U   B  26       6.883 -35.946  19.297  0.00  0.00    +0.000 C 
ATOM   1236  O4' U   B  26       5.834 -34.947  19.445  0.00  0.00    +0.000 OA
ATOM   1237  C3' U   B  26       7.658 -35.480  18.083  0.00  0.00    +0.000 C 
ATOM   1238  C2' U   B  26       6.550 -34.957  17.180  0.00  0.00    +0.000 C 
ATOM   1239  C1' U   B  26       5.607 -34.306  18.203  0.00  0.00    +0.000 C 
BRANCH12391240
ATOM   1240  N1  U   B  26       5.856 -32.856  18.359  0.00  0.00    +0.000 N 
ATOM   1241  C2  U   B  26       5.317 -32.013  17.402  0.00  0.00    +0.000 A 
ATOM   1242  O2  U   B  26       4.660 -32.413  16.458  0.00  0.00    +0.000 OA
ATOM   1243  N3  U   B  26       5.574 -30.674  17.590  0.00  0.00    +0.000 N 
ATOM   1244  C4  U   B  26       6.298 -30.108  18.615  0.00  0.00    +0.000 A 
ATOM   1245  O4  U   B  26       6.444 -28.886  18.647  0.00  0.00    +0.000 OA
ATOM   1246  C5  U   B  26       6.820 -31.044  19.562  0.00  0.00    +0.000 A 
ATOM   1247  C6  U   B  26       6.586 -32.353  19.406  0.00  0.00    +0.000 A 
ATOM   1248  H   U   B  26       5.201 -30.056  16.921  0.00  0.00    +0.000 HD
ENDBRANCH12391240
BRANCH12381249
ATOM   1249  O2' U   B  26       5.861 -36.007  16.530  0.00  0.00    +0.000 OA
ATOM   1250  H   U   B  26       5.510 -36.622  17.193  0.00  0.00    +0.000 HD
ENDBRANCH12381249
BRANCH12351251
ATOM   1251  C5' U   B  26       7.667 -36.056  20.582  0.00  0.00    +0.000 C 
BRANCH12511252
ATOM   1252  O5' U   B  26       8.287 -34.822  20.925  0.00  0.00    +0.000 OA
BRANCH12521253
ATOM   1253  P   U   B  26       8.892 -34.580  22.380  0.00  0.00    +0.000 P 
ATOM   1254  OP2 U   B  26       9.360 -33.170  22.460  0.00  0.00    +0.000 OA
BRANCH12531255
ATOM   1255  OP1 U   B  26       9.832 -35.685  22.675  0.00  0.00    +0.000 OA
ATOM   1256  H   U   B  26      10.617 -35.601  22.111  0.00  0.00    +0.000 HD
ENDBRANCH12531255
BRANCH12531257
ATOM   1257  O3' U   B  25       7.606 -34.748  23.330  0.00  0.00    +0.000 OA
BRANCH12571260
ATOM   1258  C4' U   B  25       5.968 -33.667  24.782  0.00  0.00    +0.000 C 
ATOM   1259  O4' U   B  25       4.752 -32.908  24.538  0.00  0.00    +0.000 OA
ATOM   1260  C3' U   B  25       6.646 -33.704  23.430  0.00  0.00    +0.000 C 
ATOM   1261  C2' U   B  25       5.462 -33.873  22.487  0.00  0.00    +0.000 C 
ATOM   1262  C1' U   B  25       4.408 -32.987  23.167  0.00  0.00    +0.000 C 
BRANCH12621263
ATOM   1263  N1  U   B  25       4.369 -31.623  22.597  0.00  0.00    +0.000 N 
ATOM   1264  C2  U   B  25       3.633 -31.440  21.437  0.00  0.00    +0.000 A 
ATOM   1265  O2  U   B  25       3.031 -32.342  20.888  0.00  0.00    +0.000 OA
ATOM   1266  N3  U   B  25       3.627 -30.155  20.943  0.00  0.00    +0.000 N 
ATOM   1267  C4  U   B  25       4.266 -29.059  21.479  0.00  0.00    +0.000 A 
ATOM   1268  O4  U   B  25       4.166 -27.968  20.917  0.00  0.00    +0.000 OA
ATOM   1269  C5  U   B  25       5.003 -29.329  22.675  0.00  0.00    +0.000 A 
ATOM   1270  C6  U   B  25       5.028 -30.570  23.180  0.00  0.00    +0.000 A 
ATOM   1271  H   U   B  25       3.111 -30.003  20.119  0.00  0.00    +0.000 HD
ENDBRANCH12621263
BRANCH12611272
ATOM   1272  O2' U   B  25       4.990 -35.204  22.466  0.00  0.00    +0.000 OA
ATOM   1273  H   U   B  25       4.760 -35.480  23.367  0.00  0.00    +0.000 HD
ENDBRANCH12611272
BRANCH12581274
ATOM   1274  C5' U   B  25       6.754 -33.031  25.903  0.00  0.00    +0.000 C 
BRANCH12741275
ATOM   1275  O5' U   B  25       7.160 -31.708  25.575  0.00  0.00    +0.000 OA
BRANCH12751276
ATOM   1276  P   U   B  25       7.691 -30.711  26.696  0.00  0.00    +0.000 P 
ATOM   1277  OP2 U   B  25       7.911 -29.378  26.071  0.00  0.00    +0.000 OA
BRANCH12761278
ATOM   1278  OP1 U   B  25       8.798 -31.379  27.419  0.00  0.00    +0.000 OA
ATOM   1279  H   U   B  25       9.570 -31.449  26.835  0.00  0.00    +0.000 HD
ENDBRANCH12761278
BRANCH12761280
ATOM   1280  O3' U   B  24       6.433 -30.608  27.679  0.00  0.00    +0.000 OA
BRANCH12801283
ATOM   1281  C4' U   B  24       4.618 -29.245  28.573  0.00  0.00    +0.000 C 
ATOM   1282  O4' U   B  24       3.308 -28.864  28.072  0.00  0.00    +0.000 OA
ATOM   1283  C3' U   B  24       5.328 -29.780  27.349  0.00  0.00    +0.000 C 
ATOM   1284  C2' U   B  24       4.209 -30.512  26.624  0.00  0.00    +0.000 C 
ATOM   1285  C1' U   B  24       3.019 -29.584  26.892  0.00  0.00    +0.000 C 
BRANCH12851286
ATOM   1286  N1  U   B  24       2.785 -28.630  25.782  0.00  0.00    +0.000 N 
ATOM   1287  C2  U   B  24       2.025 -29.071  24.716  0.00  0.00    +0.000 A 
ATOM   1288  O2  U   B  24       1.552 -30.190  24.660  0.00  0.00    +0.000 OA
ATOM   1289  N3  U   B  24       1.837 -28.149  23.710  0.00  0.00    +0.000 N 
ATOM   1290  C4  U   B  24       2.315 -26.860  23.666  0.00  0.00    +0.000 A 
ATOM   1291  O4  U   B  24       2.058 -26.154  22.691  0.00  0.00    +0.000 OA
ATOM   1292  C5  U   B  24       3.090 -26.478  24.807  0.00  0.00    +0.000 A 
ATOM   1293  C6  U   B  24       3.293 -27.354  25.800  0.00  0.00    +0.000 A 
ATOM   1294  H   U   B  24       1.302 -28.445  22.938  0.00  0.00    +0.000 HD
ENDBRANCH12851286
BRANCH12841295
ATOM   1295  O2' U   B  24       3.939 -31.774  27.205  0.00  0.00    +0.000 OA
ATOM   1296  H   U   B  24       3.728 -31.659  28.145  0.00  0.00    +0.000 HD
ENDBRANCH12841295
BRANCH12811297
ATOM   1297  C5' U   B  24       5.265 -28.068  29.255  0.00  0.00    +0.000 C 
BRANCH12971298
ATOM   1298  O5' U   B  24       5.450 -26.984  28.348  0.00  0.00    +0.000 OA
BRANCH12981299
ATOM   1299  P   U   B  24       5.324 -25.479  28.834  0.00  0.00    +0.000 P 
ATOM   1300  OP2 U   B  24       5.277 -24.601  27.637  0.00  0.00    +0.000 OA
BRANCH12991301
ATOM   1301  OP1 U   B  24       6.349 -25.247  29.876  0.00  0.00    +0.000 OA
ATOM   1302  H   U   B  24       7.229 -25.246  29.469  0.00  0.00    +0.000 HD
ENDBRANCH12991301
BRANCH12991303
ATOM   1303  O3' U   B  23       3.873 -25.475  29.537  0.00  0.00    +0.000 OA
BRANCH13031306
ATOM   1304  C4' U   B  23       1.958 -23.976  29.577  0.00  0.00    +0.000 C 
ATOM   1305  O4' U   B  23       0.610 -24.052  29.049  0.00  0.00    +0.000 OA
ATOM   1306  C3' U   B  23       2.715 -25.047  28.826  0.00  0.00    +0.000 C 
ATOM   1307  C2' U   B  23       1.665 -26.135  28.658  0.00  0.00    +0.000 C 
ATOM   1308  C1' U   B  23       0.401 -25.307  28.440  0.00  0.00    +0.000 C 
BRANCH13081309
ATOM   1309  N1  U   B  23       0.083 -25.085  27.012  0.00  0.00    +0.000 N 
ATOM   1310  C2  U   B  23      -0.491 -26.124  26.301  0.00  0.00    +0.000 A 
ATOM   1311  O2  U   B  23      -0.731 -27.213  26.794  0.00  0.00    +0.000 OA
ATOM   1312  N3  U   B  23      -0.769 -25.845  24.985  0.00  0.00    +0.000 N 
ATOM   1313  C4  U   B  23      -0.544 -24.660  24.317  0.00  0.00    +0.000 A 
ATOM   1314  O4  U   B  23      -0.852 -24.563  23.131  0.00  0.00    +0.000 OA
ATOM   1315  C5  U   B  23       0.042 -23.634  25.119  0.00  0.00    +0.000 A 
ATOM   1316  C6  U   B  23       0.327 -23.875  26.410  0.00  0.00    +0.000 A 
ATOM   1317  H   U   B  23      -1.174 -26.573  24.460  0.00  0.00    +0.000 HD
ENDBRANCH13081309
BRANCH13071318
ATOM   1318  O2' U   B  23       1.521 -26.913  29.833  0.00  0.00    +0.000 OA
ATOM   1319  H   U   B  23       1.306 -26.333  30.580  0.00  0.00    +0.000 HD
ENDBRANCH13071318
BRANCH13041320
ATOM   1320  C5' U   B  23       2.483 -22.583  29.413  0.00  0.00    +0.000 C 
BRANCH13201321
ATOM   1321  O5' U   B  23       2.439 -22.181  28.046  0.00  0.00    +0.000 OA
BRANCH13211322
ATOM   1322  P   U   B  23       3.461 -21.115  27.453  0.00  0.00    +0.000 P 
ATOM   1323  OP2 U   B  23       2.738 -20.299  26.434  0.00  0.00    +0.000 OA
BRANCH13221324
ATOM   1324  OP1 U   B  23       4.708 -21.813  27.077  0.00  0.00    +0.000 OA
ATOM   1325  H   U   B  23       4.547 -22.365  26.296  0.00  0.00    +0.000 HD
ENDBRANCH13221324
BRANCH13221326
ATOM   1326  O3' C   B  22       3.771 -20.247  28.704  0.00  0.00    +0.000 OA
BRANCH13261329
ATOM   1327  C4' C   B  22       4.483 -17.945  28.851  0.00  0.00    +0.000 C 
ATOM   1328  O4' C   B  22       3.979 -16.789  29.562  0.00  0.00    +0.000 OA
ATOM   1329  C3' C   B  22       3.321 -18.909  28.840  0.00  0.00    +0.000 C 
ATOM   1330  C2' C   B  22       2.652 -18.662  30.188  0.00  0.00    +0.000 C 
ATOM   1331  C1' C   B  22       2.914 -17.168  30.407  0.00  0.00    +0.000 C 
BRANCH13311332
ATOM   1332  N1  C   B  22       1.753 -16.300  30.131  0.00  0.00    +0.000 N 
ATOM   1333  C2  C   B  22       0.728 -16.221  31.075  0.00  0.00    +0.000 A 
ATOM   1334  O2  C   B  22       0.814 -16.891  32.116  0.00  0.00    +0.000 OA
ATOM   1335  N3  C   B  22      -0.338 -15.420  30.838  0.00  0.00    +0.000 NA
ATOM   1336  C4  C   B  22      -0.402 -14.708  29.710  0.00  0.00    +0.000 A 
ATOM   1337  N4  C   B  22      -1.471 -13.930  29.518  0.00  0.00    +0.000 N 
ATOM   1338  C5  C   B  22       0.629 -14.765  28.732  0.00  0.00    +0.000 A 
ATOM   1339  C6  C   B  22       1.676 -15.563  28.979  0.00  0.00    +0.000 A 
ATOM   1340  H   C   B  22      -1.548 -13.393  28.697  0.00  0.00    +0.000 HD
ATOM   1341  H   C   B  22      -2.182 -13.894  30.198  0.00  0.00    +0.000 HD
ENDBRANCH13311332
BRANCH13301342
ATOM   1342  O2' C   B  22       3.266 -19.395  31.232  0.00  0.00    +0.000 OA
ATOM   1343  H   C   B  22       4.208 -19.169  31.275  0.00  0.00    +0.000 HD
ENDBRANCH13301342
BRANCH13271344
ATOM   1344  C5' C   B  22       4.997 -17.528  27.493  0.00  0.00    +0.000 C 
BRANCH13441345
ATOM   1345  O5' C   B  22       3.987 -16.851  26.749  0.00  0.00    +0.000 OA
BRANCH13451346
ATOM   1346  P   C   B  22       4.340 -16.018  25.440  0.00  0.00    +0.000 P 
ATOM   1347  OP1 C   B  22       5.019 -16.917  24.477  0.00  0.00    +0.000 OA
BRANCH13461348
ATOM   1348  OP2 C   B  22       3.118 -15.279  25.019  0.00  0.00    +0.000 OA
ATOM   1349  H   C   B  22       3.311 -14.763  24.221  0.00  0.00    +0.000 HD
ENDBRANCH13461348
BRANCH13461350
ATOM   1350  O3' A   B  21       5.424 -14.971  25.959  0.00  0.00    +0.000 OA
BRANCH13501353
ATOM   1351  C4' A   B  21       5.927 -12.653  26.541  0.00  0.00    +0.000 C 
ATOM   1352  O4' A   B  21       5.690 -11.842  27.722  0.00  0.00    +0.000 OA
ATOM   1353  C3' A   B  21       5.015 -13.851  26.731  0.00  0.00    +0.000 C 
ATOM   1354  C2' A   B  21       5.114 -14.087  28.231  0.00  0.00    +0.000 C 
ATOM   1355  C1' A   B  21       5.184 -12.654  28.763  0.00  0.00    +0.000 C 
BRANCH13551356
ATOM   1356  N9  A   B  21       3.869 -12.141  29.173  0.00  0.00    +0.000 N 
ATOM   1357  C8  A   B  21       3.083 -11.212  28.542  0.00  0.00    +0.000 A 
ATOM   1358  N7  A   B  21       1.956 -10.965  29.166  0.00  0.00    +0.000 NA
ATOM   1359  C5  A   B  21       2.003 -11.784  30.284  0.00  0.00    +0.000 A 
ATOM   1360  C6  A   B  21       1.113 -11.990  31.347  0.00  0.00    +0.000 A 
ATOM   1361  N6  A   B  21      -0.060 -11.354  31.459  0.00  0.00    +0.000 N 
ATOM   1362  N1  A   B  21       1.462 -12.877  32.299  0.00  0.00    +0.000 NA
ATOM   1363  C2  A   B  21       2.634 -13.512  32.182  0.00  0.00    +0.000 A 
ATOM   1364  N3  A   B  21       3.557 -13.402  31.231  0.00  0.00    +0.000 NA
ATOM   1365  C4  A   B  21       3.178 -12.513  30.301  0.00  0.00    +0.000 A 
ATOM   1366  H   A   B  21      -0.334 -10.702  30.774  0.00  0.00    +0.000 HD
ATOM   1367  H   A   B  21      -0.649 -11.538  32.226  0.00  0.00    +0.000 HD
ENDBRANCH13551356
BRANCH13541368
ATOM   1368  O2' A   B  21       6.308 -14.765  28.579  0.00  0.00    +0.000 OA
ATOM   1369  H   A   B  21       7.072 -14.263  28.254  0.00  0.00    +0.000 HD
ENDBRANCH13541368
BRANCH13511370
ATOM   1370  C5' A   B  21       5.695 -11.834  25.293  0.00  0.00    +0.000 C 
BRANCH13701371
ATOM   1371  O5' A   B  21       4.404 -11.238  25.305  0.00  0.00    +0.000 OA
BRANCH13711372
ATOM   1372  P   A   B  21       4.036 -10.074  24.274  0.00  0.00    +0.000 P 
ATOM   1373  OP1 A   B  21       4.395 -10.536  22.912  0.00  0.00    +0.000 OA
BRANCH13721374
ATOM   1374  OP2 A   B  21       2.649  -9.632  24.564  0.00  0.00    +0.000 OA
ATOM   1375  H   A   B  21       2.400  -8.923  23.950  0.00  0.00    +0.000 HD
ENDBRANCH13721374
BRANCH13721376
ATOM   1376  O3' A   B  20       5.036  -8.902  24.668  0.00  0.00    +0.000 OA
BRANCH13761379
ATOM   1377  C4' A   B  20       5.396  -6.741  25.771  0.00  0.00    +0.000 C 
ATOM   1378  O4' A   B  20       5.530  -6.340  27.161  0.00  0.00    +0.000 OA
ATOM   1379  C3' A   B  20       4.838  -8.150  25.856  0.00  0.00    +0.000 C 
ATOM   1380  C2' A   B  20       5.591  -8.707  27.056  0.00  0.00    +0.000 C 
ATOM   1381  C1' A   B  20       5.619  -7.491  27.980  0.00  0.00    +0.000 C 
BRANCH13811382
ATOM   1382  N9  A   B  20       4.491  -7.500  28.921  0.00  0.00    +0.000 N 
ATOM   1383  C8  A   B  20       3.341  -6.753  28.890  0.00  0.00    +0.000 A 
ATOM   1384  N7  A   B  20       2.521  -7.011  29.880  0.00  0.00    +0.000 NA
ATOM   1385  C5  A   B  20       3.172  -7.994  30.612  0.00  0.00    +0.000 A 
ATOM   1386  C6  A   B  20       2.832  -8.695  31.777  0.00  0.00    +0.000 A 
ATOM   1387  N6  A   B  20       1.687  -8.500  32.446  0.00  0.00    +0.000 N 
ATOM   1388  N1  A   B  20       3.703  -9.611  32.242  0.00  0.00    +0.000 NA
ATOM   1389  C2  A   B  20       4.844  -9.806  31.570  0.00  0.00    +0.000 A 
ATOM   1390  N3  A   B  20       5.282  -9.209  30.462  0.00  0.00    +0.000 NA
ATOM   1391  C4  A   B  20       4.388  -8.304  30.029  0.00  0.00    +0.000 A 
ATOM   1392  H   A   B  20       1.036  -7.835  32.124  0.00  0.00    +0.000 HD
ATOM   1393  H   A   B  20       1.497  -9.021  33.259  0.00  0.00    +0.000 HD
ENDBRANCH13811382
BRANCH13801394
ATOM   1394  O2' A   B  20       6.920  -9.064  26.724  0.00  0.00    +0.000 OA
ATOM   1395  H   A   B  20       7.377  -8.295  26.349  0.00  0.00    +0.000 HD
ENDBRANCH13801394
BRANCH13771396
ATOM   1396  C5' A   B  20       4.559  -5.734  25.018  0.00  0.00    +0.000 C 
BRANCH13961397
ATOM   1397  O5' A   B  20       3.291  -5.550  25.636  0.00  0.00    +0.000 OA
BRANCH13971398
ATOM   1398  P   A   B  20       2.378  -4.296  25.258  0.00  0.00    +0.000 P 
ATOM   1399  OP1 A   B  20       2.310  -4.204  23.780  0.00  0.00    +0.000 OA
BRANCH13981400
ATOM   1400  OP2 A   B  20       1.126  -4.388  26.052  0.00  0.00    +0.000 OA
ATOM   1401  H   A   B  20       0.600  -5.142  25.741  0.00  0.00    +0.000 HD
ENDBRANCH13981400
BRANCH13981402
ATOM   1402  O3' A   B  19       3.214  -3.055  25.791  0.00  0.00    +0.000 OA
BRANCH14021405
ATOM   1403  C4' A   B  19       3.412  -1.304  27.492  0.00  0.00    +0.000 C 
ATOM   1404  O4' A   B  19       3.994  -1.263  28.822  0.00  0.00    +0.000 OA
ATOM   1405  C3' A   B  19       3.309  -2.787  27.185  0.00  0.00    +0.000 C 
ATOM   1406  C2' A   B  19       4.578  -3.332  27.826  0.00  0.00    +0.000 C 
ATOM   1407  C1' A   B  19       4.659  -2.484  29.090  0.00  0.00    +0.000 C 
BRANCH14071408
ATOM   1408  N9  A   B  19       4.004  -3.139  30.233  0.00  0.00    +0.000 N 
ATOM   1409  C8  A   B  19       2.775  -2.866  30.776  0.00  0.00    +0.000 A 
ATOM   1410  N7  A   B  19       2.469  -3.633  31.795  0.00  0.00    +0.000 NA
ATOM   1411  C5  A   B  19       3.568  -4.469  31.932  0.00  0.00    +0.000 A 
ATOM   1412  C6  A   B  19       3.865  -5.510  32.826  0.00  0.00    +0.000 A 
ATOM   1413  N6  A   B  19       3.035  -5.903  33.801  0.00  0.00    +0.000 N 
ATOM   1414  N1  A   B  19       5.048  -6.142  32.687  0.00  0.00    +0.000 NA
ATOM   1415  C2  A   B  19       5.876  -5.750  31.711  0.00  0.00    +0.000 A 
ATOM   1416  N3  A   B  19       5.711  -4.784  30.807  0.00  0.00    +0.000 NA
ATOM   1417  C4  A   B  19       4.522  -4.176  30.974  0.00  0.00    +0.000 A 
ATOM   1418  H   A   B  19       2.167  -5.454  33.919  0.00  0.00    +0.000 HD
ATOM   1419  H   A   B  19       3.293  -6.641  34.400  0.00  0.00    +0.000 HD
ENDBRANCH14071408
BRANCH14061420
ATOM   1420  O2' A   B  19       5.720  -3.080  27.030  0.00  0.00    +0.000 OA
ATOM   1421  H   A   B  19       5.793  -2.127  26.862  0.00  0.00    +0.000 HD
ENDBRANCH14061420
BRANCH14031422
ATOM   1422  C5' A   B  19       2.111  -0.542  27.472  0.00  0.00    +0.000 C 
BRANCH14221423
ATOM   1423  O5' A   B  19       1.155  -1.140  28.342  0.00  0.00    +0.000 OA
BRANCH14231424
ATOM   1424  P   A   B  19      -0.249  -0.437  28.611  0.00  0.00    +0.000 P 
ATOM   1425  OP1 A   B  19      -0.846  -0.085  27.299  0.00  0.00    +0.000 OA
BRANCH14241426
ATOM   1426  OP2 A   B  19      -1.014  -1.283  29.566  0.00  0.00    +0.000 OA
ATOM   1427  H   A   B  19      -1.267  -2.113  29.132  0.00  0.00    +0.000 HD
ENDBRANCH14241426
BRANCH14241428
ATOM   1428  O3' G   B  18       0.156   0.911  29.335  0.00  0.00    +0.000 OA
BRANCH14281431
ATOM   1429  C4' G   B  18       0.182   2.187  31.414  0.00  0.00    +0.000 C 
ATOM   1430  O4' G   B  18       1.075   2.210  32.565  0.00  0.00    +0.000 OA
ATOM   1431  C3' G   B  18       0.554   0.904  30.701  0.00  0.00    +0.000 C 
ATOM   1432  C2' G   B  18       2.061   0.856  30.901  0.00  0.00    +0.000 C 
ATOM   1433  C1' G   B  18       2.195   1.391  32.319  0.00  0.00    +0.000 C 
BRANCH14331434
ATOM   1434  N9  G   B  18       2.221   0.311  33.318  0.00  0.00    +0.000 N 
ATOM   1435  C8  G   B  18       1.253   0.000  34.242  0.00  0.00    +0.000 A 
ATOM   1436  N7  G   B  18       1.566  -1.027  34.983  0.00  0.00    +0.000 NA
ATOM   1437  C5  G   B  18       2.817  -1.414  34.527  0.00  0.00    +0.000 A 
ATOM   1438  C6  G   B  18       3.664  -2.470  34.948  0.00  0.00    +0.000 A 
ATOM   1439  O6  G   B  18       3.473  -3.303  35.841  0.00  0.00    +0.000 OA
ATOM   1440  N1  G   B  18       4.842  -2.510  34.213  0.00  0.00    +0.000 NA
ATOM   1441  C2  G   B  18       5.164  -1.643  33.200  0.00  0.00    +0.000 A 
ATOM   1442  N2  G   B  18       6.352  -1.834  32.602  0.00  0.00    +0.000 N 
ATOM   1443  N3  G   B  18       4.387  -0.654  32.797  0.00  0.00    +0.000 N 
ATOM   1444  C4  G   B  18       3.236  -0.599  33.501  0.00  0.00    +0.000 A 
ATOM   1445  H   G   B  18       6.635  -1.241  31.869  0.00  0.00    +0.000 HD
ATOM   1446  H   G   B  18       6.940  -2.567  32.897  0.00  0.00    +0.000 HD
ATOM   1447  H   G   B  18       4.619  -0.032  32.070  0.00  0.00    +0.000 HD
ENDBRANCH14331434
BRANCH14321448
ATOM   1448  O2' G   B  18       2.739   1.725  30.015  0.00  0.00    +0.000 OA
ATOM   1449  H   G   B  18       2.402   2.628  30.127  0.00  0.00    +0.000 HD
ENDBRANCH14321448
BRANCH14291450
ATOM   1450  C5' G   B  18      -1.252   2.317  31.853  0.00  0.00    +0.000 C 
BRANCH14501451
ATOM   1451  O5' G   B  18      -1.361   2.365  33.270  0.00  0.00    +0.000 OA
BRANCH14511452
ATOM   1452  P   G   B  18      -2.513   3.207  33.980  0.00  0.00    +0.000 P 
ATOM   1453  OP1 G   B  18      -3.684   3.264  33.076  0.00  0.00    +0.000 OA
BRANCH14521454
ATOM   1454  OP2 G   B  18      -2.675   2.674  35.347  0.00  0.00    +0.000 OA
ATOM   1455  H   G   B  18      -3.041   1.777  35.303  0.00  0.00    +0.000 HD
ENDBRANCH14521454
BRANCH14521456
ATOM   1456  O3' C   B  17      -1.918   4.666  34.055  0.00  0.00    +0.000 OA
BRANCH14561459
ATOM   1457  C4' C   B  17      -0.436   5.848  35.604  0.00  0.00    +0.000 C 
ATOM   1458  O4' C   B  17       0.930   6.337  35.507  0.00  0.00    +0.000 OA
ATOM   1459  C3' C   B  17      -0.562   4.878  34.449  0.00  0.00    +0.000 C 
ATOM   1460  C2' C   B  17       0.281   5.545  33.370  0.00  0.00    +0.000 C 
ATOM   1461  C1' C   B  17       1.428   6.124  34.201  0.00  0.00    +0.000 C 
BRANCH14611462
ATOM   1462  N1  C   B  17       2.589   5.207  34.279  0.00  0.00    +0.000 N 
ATOM   1463  C2  C   B  17       3.455   5.113  33.186  0.00  0.00    +0.000 A 
ATOM   1464  O2  C   B  17       3.232   5.803  32.173  0.00  0.00    +0.000 OA
ATOM   1465  N3  C   B  17       4.518   4.278  33.253  0.00  0.00    +0.000 NA
ATOM   1466  C4  C   B  17       4.731   3.549  34.350  0.00  0.00    +0.000 A 
ATOM   1467  N4  C   B  17       5.790   2.735  34.369  0.00  0.00    +0.000 N 
ATOM   1468  C5  C   B  17       3.864   3.627  35.476  0.00  0.00    +0.000 A 
ATOM   1469  C6  C   B  17       2.818   4.459  35.400  0.00  0.00    +0.000 A 
ATOM   1470  H   C   B  17       6.386   2.685  33.587  0.00  0.00    +0.000 HD
ATOM   1471  H   C   B  17       5.974   2.185  35.165  0.00  0.00    +0.000 HD
ENDBRANCH14611462
BRANCH14601472
ATOM   1472  O2' C   B  17      -0.411   6.602  32.731  0.00  0.00    +0.000 OA
ATOM   1473  H   C   B  17      -0.698   7.249  33.395  0.00  0.00    +0.000 HD
ENDBRANCH14601472
BRANCH14571474
ATOM   1474  C5' C   B  17      -0.668   5.262  36.971  0.00  0.00    +0.000 C 
BRANCH14741475
ATOM   1475  O5' C   B  17       0.150   4.114  37.175  0.00  0.00    +0.000 OA
BRANCH14751476
ATOM   1476  P   C   B  17       0.178   3.361  38.573  0.00  0.00    +0.000 P 
ATOM   1477  OP2 C   B  17       1.024   2.148  38.426  0.00  0.00    +0.000 OA
BRANCH14761478
ATOM   1478  OP1 C   B  17      -1.219   3.222  39.052  0.00  0.00    +0.000 OA
ATOM   1479  H   C   B  17      -1.697   2.601  38.480  0.00  0.00    +0.000 HD
ENDBRANCH14761478
BRANCH14761480
ATOM   1480  O3' C   B  16       0.912   4.374  39.528  0.00  0.00    +0.000 OA
BRANCH14801494
ATOM   1481  C4' U   B  15       9.487   3.917  39.891  0.00  0.00    +0.000 C 
ATOM   1482  O4' U   B  15       9.996   4.825  38.902  0.00  0.00    +0.000 OA
ATOM   1483  C3' U   B  15       8.116   3.487  39.419  0.00  0.00    +0.000 C 
ATOM   1484  O3' U   B  15       7.227   3.452  40.526  0.00  0.00    +0.000 OA
ATOM   1485  C2' U   B  15       7.689   4.544  38.412  0.00  0.00    +0.000 C 
ATOM   1486  O2' U   B  15       6.616   5.338  38.840  0.00  0.00    +0.000 OA
ATOM   1487  C1' U   B  15       8.928   5.418  38.208  0.00  0.00    +0.000 C 
ATOM   1488  P   C   B  16       6.250   2.281  40.790  0.00  0.00    +0.000 P 
ATOM   1489  OP2 C   B  16       6.057   1.460  39.571  0.00  0.00    +0.000 OA
ATOM   1490  O5' C   B  16       4.883   3.048  41.102  0.00  0.00    +0.000 OA
ATOM   1491  C5' C   B  16       3.904   3.237  40.090  0.00  0.00    +0.000 C 
ATOM   1492  C4' C   B  16       3.223   4.577  40.255  0.00  0.00    +0.000 C 
ATOM   1493  O4' C   B  16       4.213   5.643  40.146  0.00  0.00    +0.000 OA
ATOM   1494  C3' C   B  16       2.194   4.890  39.195  0.00  0.00    +0.000 C 
ATOM   1495  C2' C   B  16       2.222   6.408  39.137  0.00  0.00    +0.000 C 
ATOM   1496  C1' C   B  16       3.703   6.702  39.375  0.00  0.00    +0.000 C 
ATOM   1497  N1  C   B  16       4.495   6.774  38.126  0.00  0.00    +0.000 N 
ATOM   1498  C2  C   B  16       4.350   7.867  37.274  0.00  0.00    +0.000 C 
ATOM   1499  O2  C   B  16       3.553   8.770  37.571  0.00  0.00    +0.000 OA
ATOM   1500  N3  C   B  16       5.088   7.923  36.141  0.00  0.00    +0.000 NA
ATOM   1501  C4  C   B  16       5.938   6.938  35.840  0.00  0.00    +0.000 C 
ATOM   1502  N4  C   B  16       6.642   7.035  34.714  0.00  0.00    +0.000 N 
ATOM   1503  C5  C   B  16       6.103   5.816  36.688  0.00  0.00    +0.000 C 
ATOM   1504  C6  C   B  16       5.375   5.773  37.807  0.00  0.00    +0.000 C 
ATOM   1505  H   C   B  16       6.525   7.816  34.126  0.00  0.00    +0.000 HD
ATOM   1506  H   C   B  16       7.279   6.326  34.469  0.00  0.00    +0.000 HD
BRANCH14871507
ATOM   1507  N1  U   B  15       9.308   5.566  36.796  0.00  0.00    +0.000 N 
ATOM   1508  C2  U   B  15       8.716   6.580  36.071  0.00  0.00    +0.000 A 
ATOM   1509  O2  U   B  15       7.892   7.346  36.548  0.00  0.00    +0.000 OA
ATOM   1510  N3  U   B  15       9.106   6.662  34.760  0.00  0.00    +0.000 N 
ATOM   1511  C4  U   B  15      10.027   5.859  34.120  0.00  0.00    +0.000 A 
ATOM   1512  O4  U   B  15      10.277   6.060  32.943  0.00  0.00    +0.000 OA
ATOM   1513  C5  U   B  15      10.604   4.838  34.936  0.00  0.00    +0.000 A 
ATOM   1514  C6  U   B  15      10.232   4.727  36.217  0.00  0.00    +0.000 A 
ATOM   1515  H   U   B  15       8.685   7.368  34.218  0.00  0.00    +0.000 HD
ENDBRANCH14871507
BRANCH14951516
ATOM   1516  O2' C   B  16       1.458   7.011  40.165  0.00  0.00    +0.000 OA
ATOM   1517  H   C   B  16       1.780   6.707  41.028  0.00  0.00    +0.000 HD
ENDBRANCH14951516
BRANCH14881518
ATOM   1518  OP1 C   B  16       6.708   1.635  42.044  0.00  0.00    +0.000 OA
ATOM   1519  H   C   B  16       7.539   1.162  41.879  0.00  0.00    +0.000 HD
ENDBRANCH14881518
BRANCH14811520
ATOM   1520  C5' U   B  15      10.464   2.772  40.086  0.00  0.00    +0.000 C 
BRANCH15201521
ATOM   1521  O5' U   B  15      10.675   2.105  38.852  0.00  0.00    +0.000 OA
BRANCH15211522
ATOM   1522  P   U   B  15      12.136   1.980  38.243  0.00  0.00    +0.000 P 
ATOM   1523  OP1 U   B  15      12.795   3.306  38.244  0.00  0.00    +0.000 OA
BRANCH15221524
ATOM   1524  OP2 U   B  15      12.816   0.841  38.907  0.00  0.00    +0.000 OA
ATOM   1525  H   U   B  15      13.713   0.746  38.549  0.00  0.00    +0.000 HD
ENDBRANCH15221524
BRANCH15221526
ATOM   1526  O3' A   B  14      11.846   1.578  36.734  0.00  0.00    +0.000 OA
BRANCH15261529
ATOM   1527  C4' A   B  14      11.523  -0.371  35.300  0.00  0.00    +0.000 C 
ATOM   1528  O4' A   B  14      10.353  -1.124  34.891  0.00  0.00    +0.000 OA
ATOM   1529  C3' A   B  14      11.013   0.471  36.449  0.00  0.00    +0.000 C 
ATOM   1530  C2' A   B  14       9.630   0.861  35.958  0.00  0.00    +0.000 C 
ATOM   1531  C1' A   B  14       9.183  -0.436  35.290  0.00  0.00    +0.000 C 
BRANCH15311532
ATOM   1532  N9  A   B  14       8.420  -1.282  36.214  0.00  0.00    +0.000 N 
ATOM   1533  C8  A   B  14       8.839  -2.393  36.897  0.00  0.00    +0.000 A 
ATOM   1534  N7  A   B  14       7.911  -2.915  37.660  0.00  0.00    +0.000 NA
ATOM   1535  C5  A   B  14       6.811  -2.091  37.468  0.00  0.00    +0.000 A 
ATOM   1536  C6  A   B  14       5.512  -2.102  37.994  0.00  0.00    +0.000 A 
ATOM   1537  N6  A   B  14       5.083  -3.015  38.867  0.00  0.00    +0.000 N 
ATOM   1538  N1  A   B  14       4.660  -1.140  37.596  0.00  0.00    +0.000 NA
ATOM   1539  C2  A   B  14       5.091  -0.225  36.725  0.00  0.00    +0.000 A 
ATOM   1540  N3  A   B  14       6.288  -0.107  36.158  0.00  0.00    +0.000 NA
ATOM   1541  C4  A   B  14       7.111  -1.082  36.579  0.00  0.00    +0.000 A 
ATOM   1542  H   A   B  14       5.690  -3.728  39.172  0.00  0.00    +0.000 HD
ATOM   1543  H   A   B  14       4.160  -2.976  39.206  0.00  0.00    +0.000 HD
ENDBRANCH15311532
BRANCH15301544
ATOM   1544  O2' A   B  14       9.678   1.888  34.996  0.00  0.00    +0.000 OA
ATOM   1545  H   A   B  14      10.244   1.613  34.258  0.00  0.00    +0.000 HD
ENDBRANCH15301544
BRANCH15271546
ATOM   1546  C5' A   B  14      12.660  -1.308  35.618  0.00  0.00    +0.000 C 
BRANCH15461547
ATOM   1547  O5' A   B  14      12.335  -2.161  36.700  0.00  0.00    +0.000 OA
BRANCH15471548
ATOM   1548  P   A   B  14      13.303  -3.361  37.100  0.00  0.00    +0.000 P 
ATOM   1549  OP1 A   B  14      14.677  -2.835  37.235  0.00  0.00    +0.000 OA
BRANCH15481550
ATOM   1550  OP2 A   B  14      12.681  -4.081  38.239  0.00  0.00    +0.000 OA
ATOM   1551  H   A   B  14      11.785  -4.361  37.994  0.00  0.00    +0.000 HD
ENDBRANCH15481550
BRANCH15481552
ATOM   1552  O3' C   B  13      13.258  -4.312  35.809  0.00  0.00    +0.000 OA
BRANCH15521555
ATOM   1553  C4' C   B  13      12.303  -6.352  34.850  0.00  0.00    +0.000 C 
ATOM   1554  O4' C   B  13      11.024  -6.662  34.232  0.00  0.00    +0.000 OA
ATOM   1555  C3' C   B  13      12.062  -5.007  35.502  0.00  0.00    +0.000 C 
ATOM   1556  C2' C   B  13      11.204  -4.307  34.458  0.00  0.00    +0.000 C 
ATOM   1557  C1' C   B  13      10.313  -5.459  33.988  0.00  0.00    +0.000 C 
BRANCH15571558
ATOM   1558  N1  C   B  13       9.026  -5.499  34.720  0.00  0.00    +0.000 N 
ATOM   1559  C2  C   B  13       8.010  -4.620  34.313  0.00  0.00    +0.000 A 
ATOM   1560  O2  C   B  13       8.214  -3.861  33.355  0.00  0.00    +0.000 OA
ATOM   1561  N3  C   B  13       6.828  -4.625  34.972  0.00  0.00    +0.000 NA
ATOM   1562  C4  C   B  13       6.641  -5.454  36.000  0.00  0.00    +0.000 A 
ATOM   1563  N4  C   B  13       5.461  -5.420  36.618  0.00  0.00    +0.000 N 
ATOM   1564  C5  C   B  13       7.658  -6.354  36.433  0.00  0.00    +0.000 A 
ATOM   1565  C6  C   B  13       8.822  -6.340  35.772  0.00  0.00    +0.000 A 
ATOM   1566  H   C   B  13       4.763  -4.796  36.313  0.00  0.00    +0.000 HD
ATOM   1567  H   C   B  13       5.287  -6.019  37.379  0.00  0.00    +0.000 HD
ENDBRANCH15571558
BRANCH15561568
ATOM   1568  O2' C   B  13      11.968  -3.838  33.370  0.00  0.00    +0.000 OA
ATOM   1569  H   C   B  13      12.458  -4.577  32.977  0.00  0.00    +0.000 HD
ENDBRANCH15561568
BRANCH15531570
ATOM   1570  C5' C   B  13      12.729  -7.473  35.763  0.00  0.00    +0.000 C 
BRANCH15701571
ATOM   1571  O5' C   B  13      11.828  -7.624  36.849  0.00  0.00    +0.000 OA
BRANCH15711572
ATOM   1572  P   C   B  13      11.930  -8.889  37.815  0.00  0.00    +0.000 P 
ATOM   1573  OP1 C   B  13      13.327  -8.994  38.297  0.00  0.00    +0.000 OA
BRANCH15721574
ATOM   1574  OP2 C   B  13      10.816  -8.799  38.794  0.00  0.00    +0.000 OA
ATOM   1575  H   C   B  13       9.973  -8.736  38.319  0.00  0.00    +0.000 HD
ENDBRANCH15721574
BRANCH15721576
ATOM   1576  O3' U   B  12      11.657 -10.125  36.834  0.00  0.00    +0.000 OA
BRANCH15761579
ATOM   1577  C4' U   B  12      10.064 -11.843  36.140  0.00  0.00    +0.000 C 
ATOM   1578  O4' U   B  12       8.911 -11.842  35.251  0.00  0.00    +0.000 OA
ATOM   1579  C3' U   B  12      10.337 -10.372  36.373  0.00  0.00    +0.000 C 
ATOM   1580  C2' U   B  12      10.050  -9.773  35.002  0.00  0.00    +0.000 C 
ATOM   1581  C1' U   B  12       8.844 -10.608  34.561  0.00  0.00    +0.000 C 
BRANCH15811582
ATOM   1582  N1  U   B  12       7.555  -9.952  34.879  0.00  0.00    +0.000 N 
ATOM   1583  C2  U   B  12       7.114  -8.965  34.013  0.00  0.00    +0.000 A 
ATOM   1584  O2  U   B  12       7.735  -8.628  33.020  0.00  0.00    +0.000 OA
ATOM   1585  N3  U   B  12       5.915  -8.386  34.350  0.00  0.00    +0.000 N 
ATOM   1586  C4  U   B  12       5.134  -8.686  35.442  0.00  0.00    +0.000 A 
ATOM   1587  O4  U   B  12       4.079  -8.075  35.615  0.00  0.00    +0.000 OA
ATOM   1588  C5  U   B  12       5.656  -9.713  36.290  0.00  0.00    +0.000 A 
ATOM   1589  C6  U   B  12       6.821 -10.297  35.986  0.00  0.00    +0.000 A 
ATOM   1590  H   U   B  12       5.580  -7.683  33.747  0.00  0.00    +0.000 HD
ENDBRANCH15811582
BRANCH15801591
ATOM   1591  O2' U   B  12      11.117  -9.990  34.098  0.00  0.00    +0.000 OA
ATOM   1592  H   U   B  12      11.299 -10.941  34.034  0.00  0.00    +0.000 HD
ENDBRANCH15801591
BRANCH15771593
ATOM   1593  C5' U   B  12       9.766 -12.662  37.370  0.00  0.00    +0.000 C 
BRANCH15931594
ATOM   1594  O5' U   B  12       8.737 -12.072  38.152  0.00  0.00    +0.000 OA
BRANCH15941595
ATOM   1595  P   U   B  12       8.111 -12.844  39.399  0.00  0.00    +0.000 P 
ATOM   1596  OP2 U   B  12       7.017 -12.003  39.954  0.00  0.00    +0.000 OA
BRANCH15951597
ATOM   1597  OP1 U   B  12       9.220 -13.285  40.277  0.00  0.00    +0.000 OA
ATOM   1598  H   U   B  12       9.845 -13.821  39.764  0.00  0.00    +0.000 HD
ENDBRANCH15951597
BRANCH15951599
ATOM   1599  O3' U   B  11       7.467 -14.147  38.727  0.00  0.00    +0.000 OA
BRANCH15991602
ATOM   1600  C4' U   B  11       5.417 -15.315  38.107  0.00  0.00    +0.000 C 
ATOM   1601  O4' U   B  11       4.509 -15.219  36.973  0.00  0.00    +0.000 OA
ATOM   1602  C3' U   B  11       6.239 -14.047  38.018  0.00  0.00    +0.000 C 
ATOM   1603  C2' U   B  11       6.420 -13.880  36.516  0.00  0.00    +0.000 C 
ATOM   1604  C1' U   B  11       5.055 -14.350  35.997  0.00  0.00    +0.000 C 
BRANCH16041605
ATOM   1605  N1  U   B  11       4.115 -13.228  35.777  0.00  0.00    +0.000 N 
ATOM   1606  C2  U   B  11       4.286 -12.462  34.632  0.00  0.00    +0.000 A 
ATOM   1607  O2  U   B  11       5.168 -12.669  33.818  0.00  0.00    +0.000 OA
ATOM   1608  N3  U   B  11       3.384 -11.437  34.474  0.00  0.00    +0.000 N 
ATOM   1609  C4  U   B  11       2.352 -11.107  35.323  0.00  0.00    +0.000 A 
ATOM   1610  O4  U   B  11       1.623 -10.154  35.045  0.00  0.00    +0.000 OA
ATOM   1611  C5  U   B  11       2.242 -11.943  36.480  0.00  0.00    +0.000 A 
ATOM   1612  C6  U   B  11       3.106 -12.951  36.661  0.00  0.00    +0.000 A 
ATOM   1613  H   U   B  11       3.487 -10.880  33.669  0.00  0.00    +0.000 HD
ENDBRANCH16041605
BRANCH16031614
ATOM   1614  O2' U   B  11       7.423 -14.739  36.009  0.00  0.00    +0.000 OA
ATOM   1615  H   U   B  11       7.208 -15.657  36.237  0.00  0.00    +0.000 HD
ENDBRANCH16031614
BRANCH16001616
ATOM   1616  C5' U   B  11       4.630 -15.502  39.381  0.00  0.00    +0.000 C 
BRANCH16161617
ATOM   1617  O5' U   B  11       3.804 -14.377  39.651  0.00  0.00    +0.000 OA
BRANCH16171618
ATOM   1618  P   U   B  11       2.784 -14.377  40.877  0.00  0.00    +0.000 P 
ATOM   1619  OP2 U   B  11       2.031 -13.093  40.848  0.00  0.00    +0.000 OA
BRANCH16181620
ATOM   1620  OP1 U   B  11       3.531 -14.765  42.095  0.00  0.00    +0.000 OA
ATOM   1621  H   U   B  11       3.963 -15.621  41.950  0.00  0.00    +0.000 HD
ENDBRANCH16181620
BRANCH16181622
ATOM   1622  O3' U   B  10       1.782 -15.567  40.509  0.00  0.00    +0.000 OA
BRANCH16221625
ATOM   1623  C4' U   B  10      -0.427 -16.233  39.701  0.00  0.00    +0.000 C 
ATOM   1624  O4' U   B  10      -1.031 -16.314  38.380  0.00  0.00    +0.000 OA
ATOM   1625  C3' U   B  10       0.814 -15.397  39.480  0.00  0.00    +0.000 C 
ATOM   1626  C2' U   B  10       1.294 -15.885  38.121  0.00  0.00    +0.000 C 
ATOM   1627  C1' U   B  10      -0.041 -16.088  37.392  0.00  0.00    +0.000 C 
BRANCH16271628
ATOM   1628  N1  U   B  10      -0.424 -14.914  36.581  0.00  0.00    +0.000 N 
ATOM   1629  C2  U   B  10       0.249 -14.709  35.384  0.00  0.00    +0.000 A 
ATOM   1630  O2  U   B  10       1.130 -15.448  34.982  0.00  0.00    +0.000 OA
ATOM   1631  N3  U   B  10      -0.146 -13.603  34.672  0.00  0.00    +0.000 N 
ATOM   1632  C4  U   B  10      -1.125 -12.700  35.022  0.00  0.00    +0.000 A 
ATOM   1633  O4  U   B  10      -1.365 -11.753  34.276  0.00  0.00    +0.000 OA
ATOM   1634  C5  U   B  10      -1.774 -12.979  36.268  0.00  0.00    +0.000 A 
ATOM   1635  C6  U   B  10      -1.411 -14.052  36.984  0.00  0.00    +0.000 A 
ATOM   1636  H   U   B  10       0.320 -13.438  33.821  0.00  0.00    +0.000 HD
ENDBRANCH16271628
BRANCH16261637
ATOM   1637  O2' U   B  10       1.961 -17.129  38.213  0.00  0.00    +0.000 OA
ATOM   1638  H   U   B  10       1.376 -17.779  38.633  0.00  0.00    +0.000 HD
ENDBRANCH16261637
BRANCH16231639
ATOM   1639  C5' U   B  10      -1.429 -15.688  40.693  0.00  0.00    +0.000 C 
BRANCH16391640
ATOM   1640  O5' U   B  10      -1.888 -14.394  40.318  0.00  0.00    +0.000 OA
BRANCH16401641
ATOM   1641  P   U   B  10      -3.114 -13.706  41.069  0.00  0.00    +0.000 P 
ATOM   1642  OP2 U   B  10      -3.401 -12.411  40.392  0.00  0.00    +0.000 OA
BRANCH16411643
ATOM   1643  OP1 U   B  10      -2.835 -13.728  42.525  0.00  0.00    +0.000 OA
ATOM   1644  H   U   B  10      -2.101 -13.125  42.723  0.00  0.00    +0.000 HD
ENDBRANCH16411643
BRANCH16411645
ATOM   1645  O3' A   B   9      -4.319 -14.702  40.779  0.00  0.00    +0.000 OA
BRANCH16451648
ATOM   1646  C4' A   B   9      -6.384 -15.016  39.508  0.00  0.00    +0.000 C 
ATOM   1647  O4' A   B   9      -6.683 -15.586  38.205  0.00  0.00    +0.000 OA
ATOM   1648  C3' A   B   9      -4.884 -14.794  39.476  0.00  0.00    +0.000 C 
ATOM   1649  C2' A   B   9      -4.395 -15.992  38.683  0.00  0.00    +0.000 C 
ATOM   1650  C1' A   B   9      -5.501 -16.118  37.636  0.00  0.00    +0.000 C 
BRANCH16501651
ATOM   1651  N9  A   B   9      -5.188 -15.358  36.415  0.00  0.00    +0.000 N 
ATOM   1652  C8  A   B   9      -5.795 -14.217  35.963  0.00  0.00    +0.000 A 
ATOM   1653  N7  A   B   9      -5.290 -13.761  34.837  0.00  0.00    +0.000 NA
ATOM   1654  C5  A   B   9      -4.284 -14.667  34.531  0.00  0.00    +0.000 A 
ATOM   1655  C6  A   B   9      -3.375 -14.747  33.465  0.00  0.00    +0.000 A 
ATOM   1656  N1  A   B   9      -2.502 -15.775  33.456  0.00  0.00    +0.000 NA
ATOM   1657  C2  A   B   9      -2.548 -16.662  34.459  0.00  0.00    +0.000 A 
ATOM   1658  N3  A   B   9      -3.357 -16.692  35.518  0.00  0.00    +0.000 NA
ATOM   1659  C4  A   B   9      -4.212 -15.656  35.492  0.00  0.00    +0.000 A 
BRANCH16551660
ATOM   1660  N6  A   B   9      -3.328 -13.861  32.466  0.00  0.00    +0.000 N 
ATOM   1661  H   A   B   9      -2.668 -13.968  31.744  0.00  0.00    +0.000 HD
ATOM   1662  H   A   B   9      -3.954 -13.101  32.452  0.00  0.00    +0.000 HD
ENDBRANCH16551660
ENDBRANCH16501651
BRANCH16491663
ATOM   1663  O2' A   B   9      -4.367 -17.167  39.473  0.00  0.00    +0.000 OA
ATOM   1664  H   A   B   9      -5.247 -17.325  39.848  0.00  0.00    +0.000 HD
ENDBRANCH16491663
BRANCH16461665
ATOM   1665  C5' A   B   9      -7.221 -13.779  39.723  0.00  0.00    +0.000 C 
BRANCH16651666
ATOM   1666  O5' A   B   9      -6.925 -12.786  38.747  0.00  0.00    +0.000 OA
BRANCH16661667
ATOM   1667  P   A   B   9      -7.610 -11.351  38.800  0.00  0.00    +0.000 P 
ATOM   1668  OP2 A   B   9      -7.240 -10.613  37.565  0.00  0.00    +0.000 OA
BRANCH16671669
ATOM   1669  OP1 A   B   9      -7.319 -10.758  40.124  0.00  0.00    +0.000 OA
ATOM   1670  H   A   B   9      -6.375 -10.542  40.181  0.00  0.00    +0.000 HD
ENDBRANCH16671669
BRANCH16671671
ATOM   1671  O3' U   B   8      -9.164 -11.689  38.749  0.00  0.00    +0.000 OA
BRANCH16711674
ATOM   1672  C4' U   B   8     -11.151 -11.270  37.419  0.00  0.00    +0.000 C 
ATOM   1673  O4' U   B   8     -11.890 -12.044  36.435  0.00  0.00    +0.000 OA
ATOM   1674  C3' U   B   8      -9.817 -11.967  37.516  0.00  0.00    +0.000 C 
ATOM   1675  C2' U   B   8     -10.193 -13.436  37.354  0.00  0.00    +0.000 C 
ATOM   1676  C1' U   B   8     -11.364 -13.353  36.363  0.00  0.00    +0.000 C 
BRANCH16761677
ATOM   1677  N1  U   B   8     -10.970 -13.634  34.969  0.00  0.00    +0.000 N 
ATOM   1678  C2  U   B   8     -11.070 -14.944  34.530  0.00  0.00    +0.000 A 
ATOM   1679  O2  U   B   8     -11.465 -15.850  35.240  0.00  0.00    +0.000 OA
ATOM   1680  N3  U   B   8     -10.693 -15.152  33.225  0.00  0.00    +0.000 N 
ATOM   1681  C4  U   B   8     -10.239 -14.207  32.334  0.00  0.00    +0.000 A 
ATOM   1682  O4  U   B   8      -9.938 -14.552  31.193  0.00  0.00    +0.000 OA
ATOM   1683  C5  U   B   8     -10.166 -12.879  32.862  0.00  0.00    +0.000 A 
ATOM   1684  C6  U   B   8     -10.525 -12.646  34.130  0.00  0.00    +0.000 A 
ATOM   1685  H   U   B   8     -10.754 -16.076  32.892  0.00  0.00    +0.000 HD
ENDBRANCH16761677
BRANCH16751686
ATOM   1686  O2' U   B   8     -10.657 -14.002  38.565  0.00  0.00    +0.000 OA
ATOM   1687  H   U   B   8     -11.412 -13.489  38.893  0.00  0.00    +0.000 HD
ENDBRANCH16751686
BRANCH16721688
ATOM   1688  C5' U   B   8     -11.109  -9.823  36.992  0.00  0.00    +0.000 C 
BRANCH16881689
ATOM   1689  O5' U   B   8     -10.369  -9.665  35.790  0.00  0.00    +0.000 OA
BRANCH16891690
ATOM   1690  P   U   B   8     -10.600  -8.411  34.841  0.00  0.00    +0.000 P 
ATOM   1691  OP2 U   B   8      -9.845  -8.648  33.587  0.00  0.00    +0.000 OA
BRANCH16901692
ATOM   1692  OP1 U   B   8     -10.361  -7.180  35.622  0.00  0.00    +0.000 OA
ATOM   1693  H   U   B   8     -10.499  -6.405  35.055  0.00  0.00    +0.000 HD
ENDBRANCH16901692
BRANCH16901694
ATOM   1694  O3' C   B   7     -12.160  -8.482  34.507  0.00  0.00    +0.000 OA
BRANCH16941697
ATOM   1695  C4' C   B   7     -13.644  -8.405  32.583  0.00  0.00    +0.000 C 
ATOM   1696  O4' C   B   7     -14.340  -9.413  31.801  0.00  0.00    +0.000 OA
ATOM   1697  C3' C   B   7     -12.636  -9.200  33.374  0.00  0.00    +0.000 C 
ATOM   1698  C2' C   B   7     -13.429 -10.454  33.743  0.00  0.00    +0.000 C 
ATOM   1699  C1' C   B   7     -14.302 -10.648  32.494  0.00  0.00    +0.000 C 
BRANCH16991700
ATOM   1700  N1  C   B   7     -13.798 -11.704  31.589  0.00  0.00    +0.000 N 
ATOM   1701  C2  C   B   7     -14.186 -13.027  31.835  0.00  0.00    +0.000 A 
ATOM   1702  O2  C   B   7     -14.937 -13.262  32.792  0.00  0.00    +0.000 OA
ATOM   1703  N3  C   B   7     -13.739 -14.015  31.027  0.00  0.00    +0.000 NA
ATOM   1704  C4  C   B   7     -12.934 -13.726  30.003  0.00  0.00    +0.000 A 
ATOM   1705  N4  C   B   7     -12.520 -14.736  29.236  0.00  0.00    +0.000 N 
ATOM   1706  C5  C   B   7     -12.524 -12.389  29.731  0.00  0.00    +0.000 A 
ATOM   1707  C6  C   B   7     -12.975 -11.419  30.536  0.00  0.00    +0.000 A 
ATOM   1708  H   C   B   7     -11.925 -14.562  28.471  0.00  0.00    +0.000 HD
ATOM   1709  H   C   B   7     -12.809 -15.656  29.435  0.00  0.00    +0.000 HD
ENDBRANCH16991700
BRANCH16981710
ATOM   1710  O2' C   B   7     -14.265 -10.243  34.861  0.00  0.00    +0.000 OA
ATOM   1711  H   C   B   7     -14.862  -9.499  34.683  0.00  0.00    +0.000 HD
ENDBRANCH16981710
BRANCH16951712
ATOM   1712  C5' C   B   7     -13.088  -7.328  31.683  0.00  0.00    +0.000 C 
BRANCH17121713
ATOM   1713  O5' C   B   7     -12.046  -7.822  30.854  0.00  0.00    +0.000 OA
BRANCH17131714
ATOM   1714  P   C   B   7     -11.360  -6.884  29.763  0.00  0.00    +0.000 P 
ATOM   1715  OP2 C   B   7     -10.408  -7.713  28.983  0.00  0.00    +0.000 OA
BRANCH17141716
ATOM   1716  OP1 C   B   7     -10.894  -5.651  30.435  0.00  0.00    +0.000 OA
ATOM   1717  H   C   B   7     -10.473  -5.068  29.784  0.00  0.00    +0.000 HD
ENDBRANCH17141716
BRANCH17141718
ATOM   1718  O3' A   B   6     -12.561  -6.465  28.796  0.00  0.00    +0.000 OA
BRANCH17181721
ATOM   1719  C4' A   B   6     -13.611  -6.876  26.630  0.00  0.00    +0.000 C 
ATOM   1720  O4' A   B   6     -14.587  -7.844  26.153  0.00  0.00    +0.000 OA
ATOM   1721  C3' A   B   6     -13.166  -7.443  27.959  0.00  0.00    +0.000 C 
ATOM   1722  C2' A   B   6     -14.467  -7.998  28.521  0.00  0.00    +0.000 C 
ATOM   1723  C1' A   B   6     -15.133  -8.546  27.254  0.00  0.00    +0.000 C 
BRANCH17231724
ATOM   1724  N9  A   B   6     -14.885  -9.984  27.077  0.00  0.00    +0.000 N 
ATOM   1725  C8  A   B   6     -13.966 -10.600  26.266  0.00  0.00    +0.000 A 
ATOM   1726  N7  A   B   6     -13.997 -11.912  26.340  0.00  0.00    +0.000 NA
ATOM   1727  C5  A   B   6     -15.001 -12.174  27.259  0.00  0.00    +0.000 A 
ATOM   1728  C6  A   B   6     -15.529 -13.369  27.776  0.00  0.00    +0.000 A 
ATOM   1729  N6  A   B   6     -15.092 -14.584  27.425  0.00  0.00    +0.000 N 
ATOM   1730  N1  A   B   6     -16.527 -13.280  28.677  0.00  0.00    +0.000 NA
ATOM   1731  C2  A   B   6     -16.962 -12.066  29.028  0.00  0.00    +0.000 A 
ATOM   1732  N3  A   B   6     -16.550 -10.871  28.611  0.00  0.00    +0.000 NA
ATOM   1733  C4  A   B   6     -15.555 -10.996  27.717  0.00  0.00    +0.000 A 
ATOM   1734  H   A   B   6     -14.364 -14.675  26.769  0.00  0.00    +0.000 HD
ATOM   1735  H   A   B   6     -15.499 -15.387  27.823  0.00  0.00    +0.000 HD
ENDBRANCH17231724
BRANCH17221736
ATOM   1736  O2' A   B   6     -15.285  -6.975  29.064  0.00  0.00    +0.000 OA
ATOM   1737  H   A   B   6     -15.455  -6.303  28.386  0.00  0.00    +0.000 HD
ENDBRANCH17221736
BRANCH17191738
ATOM   1738  C5' A   B   6     -12.528  -6.673  25.598  0.00  0.00    +0.000 C 
BRANCH17381739
ATOM   1739  O5' A   B   6     -11.775  -7.865  25.409  0.00  0.00    +0.000 OA
BRANCH17391740
ATOM   1740  P   A   B   6     -10.686  -7.958  24.246  0.00  0.00    +0.000 P 
ATOM   1741  OP2 A   B   6     -10.096  -9.314  24.288  0.00  0.00    +0.000 OA
BRANCH17401742
ATOM   1742  OP1 A   B   6      -9.811  -6.765  24.334  0.00  0.00    +0.000 OA
ATOM   1743  H   A   B   6      -9.141  -6.803  23.634  0.00  0.00    +0.000 HD
ENDBRANCH17401742
BRANCH17401744
ATOM   1744  O3' U   B   5     -11.558  -7.831  22.912  0.00  0.00    +0.000 OA
BRANCH17441747
ATOM   1745  C4' U   B   5     -12.528  -9.024  21.014  0.00  0.00    +0.000 C 
ATOM   1746  O4' U   B   5     -13.747  -9.796  20.825  0.00  0.00    +0.000 OA
ATOM   1747  C3' U   B   5     -12.405  -8.903  22.514  0.00  0.00    +0.000 C 
ATOM   1748  C2' U   B   5     -13.857  -8.720  22.941  0.00  0.00    +0.000 C 
ATOM   1749  C1' U   B   5     -14.574  -9.664  21.967  0.00  0.00    +0.000 C 
BRANCH17491750
ATOM   1750  N1  U   B   5     -14.806 -11.005  22.551  0.00  0.00    +0.000 N 
ATOM   1751  C2  U   B   5     -15.895 -11.149  23.395  0.00  0.00    +0.000 A 
ATOM   1752  O2  U   B   5     -16.653 -10.233  23.663  0.00  0.00    +0.000 OA
ATOM   1753  N3  U   B   5     -16.068 -12.409  23.913  0.00  0.00    +0.000 N 
ATOM   1754  C4  U   B   5     -15.280 -13.515  23.683  0.00  0.00    +0.000 A 
ATOM   1755  O4  U   B   5     -15.563 -14.583  24.225  0.00  0.00    +0.000 OA
ATOM   1756  C5  U   B   5     -14.176 -13.285  22.801  0.00  0.00    +0.000 A 
ATOM   1757  C6  U   B   5     -13.985 -12.068  22.278  0.00  0.00    +0.000 A 
ATOM   1758  H   U   B   5     -16.838 -12.535  24.513  0.00  0.00    +0.000 HD
ENDBRANCH17491750
BRANCH17481759
ATOM   1759  O2' U   B   5     -14.308  -7.401  22.718  0.00  0.00    +0.000 OA
ATOM   1760  H   U   B   5     -14.185  -7.171  21.784  0.00  0.00    +0.000 HD
ENDBRANCH17481759
BRANCH17451761
ATOM   1761  C5' U   B   5     -11.376  -9.693  20.307  0.00  0.00    +0.000 C 
BRANCH17611762
ATOM   1762  O5' U   B   5     -11.105 -10.974  20.864  0.00  0.00    +0.000 OA
BRANCH17621763
ATOM   1763  P   U   B   5     -10.098 -11.979  20.146  0.00  0.00    +0.000 P 
ATOM   1764  OP1 U   B   5      -8.816 -11.268  19.916  0.00  0.00    +0.000 OA
BRANCH17631765
ATOM   1765  OP2 U   B   5     -10.106 -13.257  20.908  0.00  0.00    +0.000 OA
ATOM   1766  H   U   B   5      -9.499 -13.887  20.489  0.00  0.00    +0.000 HD
ENDBRANCH17631765
BRANCH17631767
ATOM   1767  O3' A   B   4     -10.770 -12.231  18.717  0.00  0.00    +0.000 OA
BRANCH17671770
ATOM   1768  C4' A   B   4     -11.966 -13.811  17.293  0.00  0.00    +0.000 C 
ATOM   1769  O4' A   B   4     -13.368 -14.164  17.147  0.00  0.00    +0.000 OA
ATOM   1770  C3' A   B   4     -11.911 -13.071  18.614  0.00  0.00    +0.000 C 
ATOM   1771  C2' A   B   4     -13.224 -12.304  18.610  0.00  0.00    +0.000 C 
ATOM   1772  C1' A   B   4     -14.161 -13.325  17.965  0.00  0.00    +0.000 C 
BRANCH17721773
ATOM   1773  N9  A   B   4     -14.848 -14.156  18.963  0.00  0.00    +0.000 N 
ATOM   1774  C8  A   B   4     -14.573 -15.453  19.313  0.00  0.00    +0.000 A 
ATOM   1775  N7  A   B   4     -15.367 -15.926  20.242  0.00  0.00    +0.000 NA
ATOM   1776  C5  A   B   4     -16.222 -14.871  20.523  0.00  0.00    +0.000 A 
ATOM   1777  C6  A   B   4     -17.296 -14.733  21.417  0.00  0.00    +0.000 A 
ATOM   1778  N6  A   B   4     -17.704 -15.707  22.234  0.00  0.00    +0.000 N 
ATOM   1779  N1  A   B   4     -17.940 -13.547  21.448  0.00  0.00    +0.000 NA
ATOM   1780  C2  A   B   4     -17.528 -12.575  20.630  0.00  0.00    +0.000 A 
ATOM   1781  N3  A   B   4     -16.534 -12.585  19.745  0.00  0.00    +0.000 NA
ATOM   1782  C4  A   B   4     -15.913 -13.776  19.740  0.00  0.00    +0.000 A 
ATOM   1783  H   A   B   4     -17.247 -16.579  22.227  0.00  0.00    +0.000 HD
ATOM   1784  H   A   B   4     -18.461 -15.553  22.844  0.00  0.00    +0.000 HD
ENDBRANCH17721773
BRANCH17711785
ATOM   1785  O2' A   B   4     -13.161 -11.153  17.788  0.00  0.00    +0.000 OA
ATOM   1786  H   A   B   4     -12.904 -11.411  16.889  0.00  0.00    +0.000 HD
ENDBRANCH17711785
BRANCH17681787
ATOM   1787  C5' A   B   4     -11.114 -15.055  17.203  0.00  0.00    +0.000 C 
BRANCH17871788
ATOM   1788  O5' A   B   4     -11.436 -15.967  18.246  0.00  0.00    +0.000 OA
BRANCH17881789
ATOM   1789  P   A   B   4     -10.901 -17.472  18.212  0.00  0.00    +0.000 P 
ATOM   1790  OP1 A   B   4      -9.431 -17.431  18.010  0.00  0.00    +0.000 OA
BRANCH17891791
ATOM   1791  OP2 A   B   4     -11.464 -18.182  19.387  0.00  0.00    +0.000 OA
ATOM   1792  H   A   B   4     -11.153 -19.101  19.389  0.00  0.00    +0.000 HD
ENDBRANCH17891791
BRANCH17891793
ATOM   1793  O3' A   B   3     -11.554 -18.064  16.887  0.00  0.00    +0.000 OA
BRANCH17931796
ATOM   1794  C4' A   B   3     -13.244 -19.562  15.960  0.00  0.00    +0.000 C 
ATOM   1795  O4' A   B   3     -14.656 -19.411  15.651  0.00  0.00    +0.000 OA
ATOM   1796  C3' A   B   3     -12.941 -18.380  16.857  0.00  0.00    +0.000 C 
ATOM   1797  C2' A   B   3     -13.797 -17.282  16.242  0.00  0.00    +0.000 C 
ATOM   1798  C1' A   B   3     -15.047 -18.064  15.846  0.00  0.00    +0.000 C 
BRANCH17981799
ATOM   1799  N9  A   B   3     -16.085 -18.018  16.886  0.00  0.00    +0.000 N 
ATOM   1800  C8  A   B   3     -16.459 -19.011  17.753  0.00  0.00    +0.000 A 
ATOM   1801  N7  A   B   3     -17.426 -18.660  18.565  0.00  0.00    +0.000 NA
ATOM   1802  C5  A   B   3     -17.708 -17.350  18.207  0.00  0.00    +0.000 A 
ATOM   1803  C6  A   B   3     -18.639 -16.412  18.687  0.00  0.00    +0.000 A 
ATOM   1804  N6  A   B   3     -19.495 -16.661  19.682  0.00  0.00    +0.000 N 
ATOM   1805  N1  A   B   3     -18.659 -15.193  18.106  0.00  0.00    +0.000 NA
ATOM   1806  C2  A   B   3     -17.800 -14.942  17.111  0.00  0.00    +0.000 A 
ATOM   1807  N3  A   B   3     -16.885 -15.741  16.572  0.00  0.00    +0.000 NA
ATOM   1808  C4  A   B   3     -16.891 -16.944  17.172  0.00  0.00    +0.000 A 
ATOM   1809  H   A   B   3     -20.125 -15.964  19.976  0.00  0.00    +0.000 HD
ATOM   1810  H   A   B   3     -19.496 -17.542  20.122  0.00  0.00    +0.000 HD
ENDBRANCH17981799
BRANCH17971811
ATOM   1811  O2' A   B   3     -13.203 -16.740  15.075  0.00  0.00    +0.000 OA
ATOM   1812  H   A   B   3     -13.036 -17.451  14.437  0.00  0.00    +0.000 HD
ENDBRANCH17971811
BRANCH17941813
ATOM   1813  C5' A   B   3     -12.993 -20.924  16.559  0.00  0.00    +0.000 C 
BRANCH18131814
ATOM   1814  O5' A   B   3     -13.713 -21.084  17.777  0.00  0.00    +0.000 OA
BRANCH18141815
ATOM   1815  P   A   B   3     -13.876 -22.525  18.441  0.00  0.00    +0.000 P 
ATOM   1816  OP1 A   B   3     -12.527 -23.127  18.573  0.00  0.00    +0.000 OA
BRANCH18151817
ATOM   1817  OP2 A   B   3     -14.739 -22.375  19.639  0.00  0.00    +0.000 OA
ATOM   1818  H   A   B   3     -15.581 -21.967  19.382  0.00  0.00    +0.000 HD
ENDBRANCH18151817
BRANCH18151819
ATOM   1819  O3' U   B   2     -14.661 -23.336  17.318  0.00  0.00    +0.000 OA
BRANCH18191822
ATOM   1820  C4' U   B   2     -16.807 -24.377  16.795  0.00  0.00    +0.000 C 
ATOM   1821  O4' U   B   2     -18.016 -23.908  16.138  0.00  0.00    +0.000 OA
ATOM   1822  C3' U   B   2     -16.054 -23.107  17.125  0.00  0.00    +0.000 C 
ATOM   1823  C2' U   B   2     -16.360 -22.221  15.920  0.00  0.00    +0.000 C 
ATOM   1824  C1' U   B   2     -17.817 -22.595  15.642  0.00  0.00    +0.000 C 
BRANCH18241825
ATOM   1825  N1  U   B   2     -18.774 -21.680  16.306  0.00  0.00    +0.000 N 
ATOM   1826  C2  U   B   2     -18.959 -20.417  15.763  0.00  0.00    +0.000 A 
ATOM   1827  O2  U   B   2     -18.367 -20.027  14.770  0.00  0.00    +0.000 OA
ATOM   1828  N3  U   B   2     -19.862 -19.622  16.424  0.00  0.00    +0.000 N 
ATOM   1829  C4  U   B   2     -20.587 -19.953  17.547  0.00  0.00    +0.000 A 
ATOM   1830  O4  U   B   2     -21.365 -19.125  18.028  0.00  0.00    +0.000 OA
ATOM   1831  C5  U   B   2     -20.349 -21.273  18.050  0.00  0.00    +0.000 A 
ATOM   1832  C6  U   B   2     -19.476 -22.074  17.423  0.00  0.00    +0.000 A 
ATOM   1833  H   U   B   2     -20.007 -18.720  16.056  0.00  0.00    +0.000 HD
ENDBRANCH18241825
BRANCH18231834
ATOM   1834  O2' U   B   2     -15.566 -22.563  14.799  0.00  0.00    +0.000 OA
ATOM   1835  H   U   B   2     -15.693 -23.501  14.587  0.00  0.00    +0.000 HD
ENDBRANCH18231834
BRANCH18201836
ATOM   1836  C5' U   B   2     -17.164 -25.245  17.971  0.00  0.00    +0.000 C 
BRANCH18361837
ATOM   1837  O5' U   B   2     -17.884 -24.508  18.949  0.00  0.00    +0.000 OA
BRANCH18371838
ATOM   1838  P   U   B   2     -18.392 -25.183  20.310  0.00  0.00    +0.000 P 
ATOM   1839  OP2 U   B   2     -19.756 -24.679  20.585  0.00  0.00    +0.000 OA
BRANCH18381840
ATOM   1840  OP1 U   B   2     -17.327 -25.028  21.329  0.00  0.00    +0.000 OA
ATOM   1841  H   U   B   2     -16.500 -25.409  20.993  0.00  0.00    +0.000 HD
ENDBRANCH18381840
BRANCH18381842
ATOM   1842  O3' C   B   1     -18.435 -26.753  19.939  0.00  0.00    +0.000 OA
BRANCH18421845
ATOM   1843  C4' C   B   1     -19.620 -28.714  20.696  0.00  0.00    +0.000 C 
ATOM   1844  O4' C   B   1     -20.636 -29.569  20.111  0.00  0.00    +0.000 OA
ATOM   1845  C3' C   B   1     -19.666 -27.457  19.872  0.00  0.00    +0.000 C 
ATOM   1846  C2' C   B   1     -19.973 -27.981  18.478  0.00  0.00    +0.000 C 
ATOM   1847  C1' C   B   1     -20.879 -29.175  18.779  0.00  0.00    +0.000 C 
BRANCH18471848
ATOM   1848  N1  C   B   1     -22.315 -28.907  18.624  0.00  0.00    +0.000 N 
ATOM   1849  C2  C   B   1     -22.854 -28.867  17.337  0.00  0.00    +0.000 A 
ATOM   1850  O2  C   B   1     -22.113 -29.044  16.358  0.00  0.00    +0.000 OA
ATOM   1851  N3  C   B   1     -24.178 -28.630  17.183  0.00  0.00    +0.000 NA
ATOM   1852  C4  C   B   1     -24.954 -28.446  18.256  0.00  0.00    +0.000 A 
ATOM   1853  N4  C   B   1     -26.255 -28.224  18.055  0.00  0.00    +0.000 N 
ATOM   1854  C5  C   B   1     -24.433 -28.488  19.580  0.00  0.00    +0.000 A 
ATOM   1855  C6  C   B   1     -23.121 -28.720  19.716  0.00  0.00    +0.000 A 
ATOM   1856  H   C   B   1     -26.614 -28.195  17.139  0.00  0.00    +0.000 HD
ATOM   1857  H   C   B   1     -26.856 -28.089  18.823  0.00  0.00    +0.000 HD
ENDBRANCH18471848
BRANCH18461858
ATOM   1858  O2' C   B   1     -18.804 -28.428  17.829  0.00  0.00    +0.000 OA
ATOM   1859  H   C   B   1     -18.371 -29.105  18.372  0.00  0.00    +0.000 HD
ENDBRANCH18461858
BRANCH18431860
ATOM   1860  C5' C   B   1     -19.890 -28.545  22.165  0.00  0.00    +0.000 C 
BRANCH18601861
ATOM   1861  O5' C   B   1     -21.094 -27.830  22.378  0.00  0.00    +0.000 OA
BRANCH18611862
ATOM   1862  P   C   B   1     -21.695 -27.572  23.846  0.00  0.00    +0.000 P 
BRANCH18621863
ATOM   1863  OP2 C   B   1     -23.115 -27.343  23.717  0.00  0.00    +0.000 OA
ATOM   1864  H   C   B   1     -23.536 -28.129  23.334  0.00  0.00    +0.000 HD
ENDBRANCH18621863
BRANCH18621865
ATOM   1865  OP3 C   B   1     -22.015 -26.650  24.168  0.00  0.00    +0.000 OA
BRANCH18651866
ATOM   1866  OP1 C   B   1     -20.773 -26.881  24.663  0.00  0.00    +0.000 OA
ATOM   1867  H   C   B   1     -20.492 -26.122  25.198  0.00  0.00    +0.000 HD
ENDBRANCH18651866
ENDBRANCH18621865
ENDBRANCH18611862
ENDBRANCH18601861
ENDBRANCH18431860
ENDBRANCH18421845
ENDBRANCH18381842
ENDBRANCH18371838
ENDBRANCH18361837
ENDBRANCH18201836
ENDBRANCH18191822
ENDBRANCH18151819
ENDBRANCH18141815
ENDBRANCH18131814
ENDBRANCH17941813
ENDBRANCH17931796
ENDBRANCH17891793
ENDBRANCH17881789
ENDBRANCH17871788
ENDBRANCH17681787
ENDBRANCH17671770
ENDBRANCH17631767
ENDBRANCH17621763
ENDBRANCH17611762
ENDBRANCH17451761
ENDBRANCH17441747
ENDBRANCH17401744
ENDBRANCH17391740
ENDBRANCH17381739
ENDBRANCH17191738
ENDBRANCH17181721
ENDBRANCH17141718
ENDBRANCH17131714
ENDBRANCH17121713
ENDBRANCH16951712
ENDBRANCH16941697
ENDBRANCH16901694
ENDBRANCH16891690
ENDBRANCH16881689
ENDBRANCH16721688
ENDBRANCH16711674
ENDBRANCH16671671
ENDBRANCH16661667
ENDBRANCH16651666
ENDBRANCH16461665
ENDBRANCH16451648
ENDBRANCH16411645
ENDBRANCH16401641
ENDBRANCH16391640
ENDBRANCH16231639
ENDBRANCH16221625
ENDBRANCH16181622
ENDBRANCH16171618
ENDBRANCH16161617
ENDBRANCH16001616
ENDBRANCH15991602
ENDBRANCH15951599
ENDBRANCH15941595
ENDBRANCH15931594
ENDBRANCH15771593
ENDBRANCH15761579
ENDBRANCH15721576
ENDBRANCH15711572
ENDBRANCH15701571
ENDBRANCH15531570
ENDBRANCH15521555
ENDBRANCH15481552
ENDBRANCH15471548
ENDBRANCH15461547
ENDBRANCH15271546
ENDBRANCH15261529
ENDBRANCH15221526
ENDBRANCH15211522
ENDBRANCH15201521
ENDBRANCH14811520
ENDBRANCH14801494
ENDBRANCH14761480
ENDBRANCH14751476
ENDBRANCH14741475
ENDBRANCH14571474
ENDBRANCH14561459
ENDBRANCH14521456
ENDBRANCH14511452
ENDBRANCH14501451
ENDBRANCH14291450
ENDBRANCH14281431
ENDBRANCH14241428
ENDBRANCH14231424
ENDBRANCH14221423
ENDBRANCH14031422
ENDBRANCH14021405
ENDBRANCH13981402
ENDBRANCH13971398
ENDBRANCH13961397
ENDBRANCH13771396
ENDBRANCH13761379
ENDBRANCH13721376
ENDBRANCH13711372
ENDBRANCH13701371
ENDBRANCH13511370
ENDBRANCH13501353
ENDBRANCH13461350
ENDBRANCH13451346
ENDBRANCH13441345
ENDBRANCH13271344
ENDBRANCH13261329
ENDBRANCH13221326
ENDBRANCH13211322
ENDBRANCH13201321
ENDBRANCH13041320
ENDBRANCH13031306
ENDBRANCH12991303
ENDBRANCH12981299
ENDBRANCH12971298
ENDBRANCH12811297
ENDBRANCH12801283
ENDBRANCH12761280
ENDBRANCH12751276
ENDBRANCH12741275
ENDBRANCH12581274
ENDBRANCH12571260
ENDBRANCH12531257
ENDBRANCH12521253
ENDBRANCH12511252
ENDBRANCH12351251
ENDBRANCH12341237
ENDBRANCH12301234
ENDBRANCH12291230
ENDBRANCH12281229
ENDBRANCH12121228
ENDBRANCH12111214
ENDBRANCH12071211
ENDBRANCH12061207
ENDBRANCH12051206
ENDBRANCH11891205
ENDBRANCH11881191
ENDBRANCH11841188
ENDBRANCH11831184
ENDBRANCH11821183
ENDBRANCH11631182
ENDBRANCH11621165
ENDBRANCH11581162
ENDBRANCH11571158
ENDBRANCH11561157
ENDBRANCH11371156
ENDBRANCH11361139
ENDBRANCH11321136
ENDBRANCH11311132
ENDBRANCH11301131
ENDBRANCH11111130
ENDBRANCH11101113
ENDBRANCH11061110
ENDBRANCH11051106
ENDBRANCH11041105
ENDBRANCH10851104
ENDBRANCH10841087
ENDBRANCH10801084
ENDBRANCH10791080
ENDBRANCH10781079
ENDBRANCH10621078
ENDBRANCH10611064
ENDBRANCH10571061
ENDBRANCH10561057
ENDBRANCH10551056
ENDBRANCH10361055
ENDBRANCH10351038
ENDBRANCH10311035
ENDBRANCH10301031
ENDBRANCH10291030
ENDBRANCH10101029
ENDBRANCH10091012
ENDBRANCH10051009
ENDBRANCH10041005
ENDBRANCH10031004
ENDBRANCH 9871003
ENDBRANCH 986 989
ENDBRANCH 982 986
ENDBRANCH 981 982
ENDBRANCH 980 981
ENDBRANCH 961 980
ENDBRANCH 960 963
ENDBRANCH 956 960
ENDBRANCH 955 956
ENDBRANCH 954 955
ENDBRANCH 938 954
ENDBRANCH 937 940
ENDBRANCH   1 937
TORSDOF 611
