REMARK  Name = /storage/kiran-stuff/aaRS/phase2/energy_scoring/vina_182jobs/proRS_LUCA_Pro_PRO/ligand.h.pdb
REMARK  2 active torsions:
REMARK  status: ('A' for Active; 'I' for Inactive)
REMARK    1  A    between atoms: CA_2  and  C_3
REMARK    2  A    between atoms: C_3  and  OXT_8
REMARK                            x       y       z     vdW  Elec       q    Type
REMARK                         _______ _______ _______ _____ _____    ______ ____
ROOT
ATOM      1  N   PRO L   1     -23.087  23.297 -21.879  0.00  0.00    +0.000 NA
ATOM      2  CA  PRO L   1     -22.151  23.852 -20.895  0.00  0.00    +0.000 C 
ATOM      3  CB  PRO L   1     -22.845  23.648 -19.574  0.00  0.00    +0.000 C 
ATOM      4  CG  PRO L   1     -23.673  22.475 -19.803  0.00  0.00    +0.000 C 
ATOM      5  CD  PRO L   1     -24.117  22.556 -21.213  0.00  0.00    +0.000 C 
ATOM      6  H   PRO L   1     -23.509  24.059 -22.410  0.00  0.00    +0.000 HD
ENDROOT
BRANCH   2   7
ATOM      7  C   PRO L   1     -20.833  23.099 -20.884  0.00  0.00    +0.000 C 
ATOM      8  O   PRO L   1     -20.668  22.162 -21.656  0.00  0.00    +0.000 OA
BRANCH   7   9
ATOM      9  OXT PRO L   1     -19.956  23.475 -20.079  0.00  0.00    +0.000 OA
ATOM     10  H   PRO L   1     -20.124  24.197 -19.506  0.00  0.00    +0.000 HD
ENDBRANCH   7   9
ENDBRANCH   2   7
TORSDOF 2
