REMARK  Name = /storage/kiran-stuff/aaRS/phase2/energy_scoring/vina_182jobs/modern_prors_GLY_GLY/ligand.h.pdb
REMARK  3 active torsions:
REMARK  status: ('A' for Active; 'I' for Inactive)
REMARK    1  A    between atoms: N_1  and  CA_2
REMARK    2  A    between atoms: CA_2  and  C_3
REMARK    3  A    between atoms: C_3  and  O_4
REMARK                            x       y       z     vdW  Elec       q    Type
REMARK                         _______ _______ _______ _____ _____    ______ ____
ROOT
ATOM      1  CA  GLY B   1     -12.136   7.998  -0.525  0.00  0.00    +0.000 C 
ENDROOT
BRANCH   1   2
ATOM      2  N   GLY B   1     -12.859   8.771   0.459  0.00  0.00    +0.000 NA
ATOM      3  H   GLY B   1     -13.544   9.363  -0.010  0.00  0.00    +0.000 HD
ATOM      4  H   GLY B   1     -12.205   9.355   0.980  0.00  0.00    +0.000 HD
ENDBRANCH   1   2
BRANCH   1   5
ATOM      5  C   GLY B   1     -11.107   7.098   0.075  0.00  0.00    +0.000 C 
ATOM      6  OXT GLY B   1     -10.837   6.022  -0.488  0.00  0.00    +0.000 OA
BRANCH   5   7
ATOM      7  O   GLY B   1     -10.514   7.413   1.130  0.00  0.00    +0.000 OA
ATOM      8  H   GLY B   1     -10.715   8.223   1.557  0.00  0.00    +0.000 HD
ENDBRANCH   5   7
ENDBRANCH   1   5
TORSDOF 3
