REMARK  Name = /storage/kiran-stuff/aaRS/phase2/energy_scoring/vina_182jobs/modern_prors_GLY_GLY/ligand.h.pdb
REMARK  3 active torsions:
REMARK  status: ('A' for Active; 'I' for Inactive)
REMARK    1  A    between atoms: N_1  and  CA_2
REMARK    2  A    between atoms: CA_2  and  C_3
REMARK    3  A    between atoms: C_3  and  O_4
REMARK                            x       y       z     vdW  Elec       q    Type
REMARK                         _______ _______ _______ _____ _____    ______ ____
ROOT
ATOM      1  CA  GLY B   1     -12.061   8.024  -1.194  0.00  0.00    +0.000 C 
ENDROOT
BRANCH   1   2
ATOM      2  N   GLY B   1     -12.462   9.141  -0.369  0.00  0.00    +0.000 NA
ATOM      3  H   GLY B   1     -12.868   9.869  -0.955  0.00  0.00    +0.000 HD
ATOM      4  H   GLY B   1     -11.647   9.512   0.120  0.00  0.00    +0.000 HD
ENDBRANCH   1   2
BRANCH   1   5
ATOM      5  C   GLY B   1     -11.453   6.906  -0.415  0.00  0.00    +0.000 C 
ATOM      6  OXT GLY B   1     -11.594   5.737  -0.817  0.00  0.00    +0.000 OA
BRANCH   5   7
ATOM      7  O   GLY B   1     -10.804   7.129   0.631  0.00  0.00    +0.000 OA
ATOM      8  H   GLY B   1     -10.696   8.008   0.937  0.00  0.00    +0.000 HD
ENDBRANCH   5   7
ENDBRANCH   1   5
TORSDOF 3
