REMARK  Name = /storage/kiran-stuff/aaRS/phase2/energy_scoring/vina_182jobs/modern_thrrs_ecoli_zn_ASN_ASN/ligand.h.pdb
REMARK  5 active torsions:
REMARK  status: ('A' for Active; 'I' for Inactive)
REMARK    1  A    between atoms: N_1  and  CA_2
REMARK    2  A    between atoms: CA_2  and  C_3
REMARK    3  A    between atoms: CA_2  and  CB_5
REMARK    4  A    between atoms: C_3  and  O_4
REMARK    5  A    between atoms: CB_5  and  CG_6
REMARK                            x       y       z     vdW  Elec       q    Type
REMARK                         _______ _______ _______ _____ _____    ______ ____
ROOT
ATOM      1  CA  ASN B   1       9.247   5.285   9.636  0.00  0.00    +0.000 C 
ENDROOT
BRANCH   1   2
ATOM      2  N   ASN B   1       9.572   3.890   9.858  0.00  0.00    +0.000 NA
ATOM      3  H   ASN B   1      10.396   3.642   9.311  0.00  0.00    +0.000 HD
ATOM      4  H   ASN B   1       8.785   3.308   9.571  0.00  0.00    +0.000 HD
ENDBRANCH   1   2
BRANCH   1   5
ATOM      5  C   ASN B   1       8.018   5.652  10.453  0.00  0.00    +0.000 C 
ATOM      6  OXT ASN B   1       7.741   6.853  10.627  0.00  0.00    +0.000 OA
BRANCH   5   7
ATOM      7  O   ASN B   1       7.264   4.776  10.884  0.00  0.00    +0.000 OA
ATOM      8  H   ASN B   1       7.473   3.872  10.753  0.00  0.00    +0.000 HD
ENDBRANCH   5   7
ENDBRANCH   1   5
BRANCH   1   9
ATOM      9  CB  ASN B   1       8.979   5.533   8.168  0.00  0.00    +0.000 C 
BRANCH   9  10
ATOM     10  CG  ASN B   1       9.963   4.859   7.241  0.00  0.00    +0.000 C 
ATOM     11  OD1 ASN B   1      11.007   4.420   7.677  0.00  0.00    +0.000 OA
ATOM     12  ND2 ASN B   1       9.664   4.763   5.943  0.00  0.00    +0.000 N 
ATOM     13  H   ASN B   1      10.293   4.327   5.324  0.00  0.00    +0.000 HD
ATOM     14  H   ASN B   1       8.814   5.128   5.605  0.00  0.00    +0.000 HD
ENDBRANCH   9  10
ENDBRANCH   1   9
TORSDOF 5
