REMARK  Name = /storage/kiran-stuff/aaRS/phase2/energy_scoring/vina_182jobs/modern_thrrs_ecoli_zn_ASN_ASN/ligand.h.pdb
REMARK  5 active torsions:
REMARK  status: ('A' for Active; 'I' for Inactive)
REMARK    1  A    between atoms: N_1  and  CA_2
REMARK    2  A    between atoms: CA_2  and  C_3
REMARK    3  A    between atoms: CA_2  and  CB_5
REMARK    4  A    between atoms: C_3  and  O_4
REMARK    5  A    between atoms: CB_5  and  CG_6
REMARK                            x       y       z     vdW  Elec       q    Type
REMARK                         _______ _______ _______ _____ _____    ______ ____
ROOT
ATOM      1  CA  ASN B   1       9.925   5.119   9.360  0.00  0.00    +0.000 C 
ENDROOT
BRANCH   1   2
ATOM      2  N   ASN B   1      10.643   5.083   8.101  0.00  0.00    +0.000 NA
ATOM      3  H   ASN B   1      11.567   5.494   8.225  0.00  0.00    +0.000 HD
ATOM      4  H   ASN B   1      10.125   5.613   7.400  0.00  0.00    +0.000 HD
ENDBRANCH   1   2
BRANCH   1   5
ATOM      5  C   ASN B   1       8.547   4.505   9.172  0.00  0.00    +0.000 C 
ATOM      6  OXT ASN B   1       7.788   4.404  10.154  0.00  0.00    +0.000 OA
BRANCH   5   7
ATOM      7  O   ASN B   1       8.154   4.170   8.052  0.00  0.00    +0.000 OA
ATOM      8  H   ASN B   1       8.726   4.245   7.313  0.00  0.00    +0.000 HD
ENDBRANCH   5   7
ENDBRANCH   1   5
BRANCH   1   9
ATOM      9  CB  ASN B   1       9.789   6.545   9.844  0.00  0.00    +0.000 C 
BRANCH   9  10
ATOM     10  CG  ASN B   1      11.065   7.130  10.403  0.00  0.00    +0.000 C 
ATOM     11  OD1 ASN B   1      12.111   6.526  10.290  0.00  0.00    +0.000 OA
ATOM     12  ND2 ASN B   1      11.015   8.311  11.024  0.00  0.00    +0.000 N 
ATOM     13  H   ASN B   1      11.836   8.707  11.395  0.00  0.00    +0.000 HD
ATOM     14  H   ASN B   1      10.157   8.786  11.111  0.00  0.00    +0.000 HD
ENDBRANCH   9  10
ENDBRANCH   1   9
TORSDOF 5
