REMARK  Name = /storage/kiran-stuff/aaRS/phase2/energy_scoring/vina_182jobs/proRS_modern_Pro_PRO/ligand.h.pdb
REMARK  2 active torsions:
REMARK  status: ('A' for Active; 'I' for Inactive)
REMARK    1  A    between atoms: CA_2  and  C_3
REMARK    2  A    between atoms: C_3  and  O_4
REMARK                            x       y       z     vdW  Elec       q    Type
REMARK                         _______ _______ _______ _____ _____    ______ ____
ROOT
ATOM      1  N   PRO L   1      40.763 -26.586  -0.588  0.00  0.00    +0.000 NA
ATOM      2  CA  PRO L   1      39.987 -27.375   0.362  0.00  0.00    +0.000 C 
ATOM      3  CB  PRO L   1      40.178 -26.674   1.663  0.00  0.00    +0.000 C 
ATOM      4  CG  PRO L   1      40.491 -25.305   1.298  0.00  0.00    +0.000 C 
ATOM      5  CD  PRO L   1      41.218 -25.385   0.027  0.00  0.00    +0.000 C 
ATOM      6  H   PRO L   1      41.567 -27.130  -0.901  0.00  0.00    +0.000 HD
ENDROOT
BRANCH   2   7
ATOM      7  C   PRO L   1      38.507 -27.391  -0.014  0.00  0.00    +0.000 C 
ATOM      8  OXT PRO L   1      38.171 -26.889  -1.080  0.00  0.00    +0.000 OA
BRANCH   7   9
ATOM      9  O   PRO L   1      37.709 -27.935   0.759  0.00  0.00    +0.000 OA
ATOM     10  H   PRO L   1      38.015 -28.305   1.564  0.00  0.00    +0.000 HD
ENDBRANCH   7   9
ENDBRANCH   2   7
TORSDOF 2
