REMARK  Name = /storage/kiran-stuff/aaRS/phase2/energy_scoring/vina_182jobs/proRS_modern_Pro_PRO/ligand.h.pdb
REMARK  630 active torsions:
REMARK  status: ('A' for Active; 'I' for Inactive)
REMARK    1  A    between atoms: P_2  and  OP1_3
REMARK    2  A    between atoms: P_2  and  OP2_4
REMARK    3  A    between atoms: P_2  and  O5'_5
REMARK    4  A    between atoms: O5'_5  and  C5'_6
REMARK    5  A    between atoms: C5'_6  and  C4'_7
REMARK    6  A    between atoms: C3'_9  and  O3'_10
REMARK    7  A    between atoms: O3'_10  and  P_22
REMARK    8  A    between atoms: C2'_11  and  O2'_12
REMARK    9  A    between atoms: C1'_13  and  N1_14
REMARK   10  A    between atoms: P_22  and  OP2_24
REMARK   11  A    between atoms: P_22  and  O5'_25
REMARK   12  A    between atoms: O5'_25  and  C5'_26
REMARK   13  A    between atoms: C5'_26  and  C4'_27
REMARK   14  A    between atoms: C3'_29  and  O3'_30
REMARK   15  A    between atoms: O3'_30  and  P_42
REMARK   16  A    between atoms: C2'_31  and  O2'_32
REMARK   17  A    between atoms: C1'_33  and  N1_34
REMARK   18  A    between atoms: P_42  and  OP1_43
REMARK   19  A    between atoms: P_42  and  O5'_45
REMARK   20  A    between atoms: O5'_45  and  C5'_46
REMARK   21  A    between atoms: C5'_46  and  C4'_47
REMARK   22  A    between atoms: C3'_49  and  O3'_50
REMARK   23  A    between atoms: O3'_50  and  P_64
REMARK   24  A    between atoms: C2'_51  and  O2'_52
REMARK   25  A    between atoms: C1'_53  and  N9_54
REMARK   26  A    between atoms: C6_58  and  N6_59
REMARK   27  A    between atoms: P_64  and  OP1_65
REMARK   28  A    between atoms: P_64  and  O5'_67
REMARK   29  A    between atoms: O5'_67  and  C5'_68
REMARK   30  A    between atoms: C5'_68  and  C4'_69
REMARK   31  A    between atoms: C3'_71  and  O3'_72
REMARK   32  A    between atoms: O3'_72  and  P_86
REMARK   33  A    between atoms: C2'_73  and  O2'_74
REMARK   34  A    between atoms: C1'_75  and  N9_76
REMARK   35  A    between atoms: C6_80  and  N6_81
REMARK   36  A    between atoms: P_86  and  OP1_87
REMARK   37  A    between atoms: P_86  and  O5'_89
REMARK   38  A    between atoms: O5'_89  and  C5'_90
REMARK   39  A    between atoms: C5'_90  and  C4'_91
REMARK   40  A    between atoms: C3'_93  and  O3'_94
REMARK   41  A    between atoms: O3'_94  and  P_106
REMARK   42  A    between atoms: C2'_95  and  O2'_96
REMARK   43  A    between atoms: C1'_97  and  N1_98
REMARK   44  A    between atoms: P_106  and  OP1_107
REMARK   45  A    between atoms: P_106  and  O5'_109
REMARK   46  A    between atoms: O5'_109  and  C5'_110
REMARK   47  A    between atoms: C5'_110  and  C4'_111
REMARK   48  A    between atoms: C3'_113  and  O3'_114
REMARK   49  A    between atoms: O3'_114  and  P_128
REMARK   50  A    between atoms: C2'_115  and  O2'_116
REMARK   51  A    between atoms: C1'_117  and  N9_118
REMARK   52  A    between atoms: C6_122  and  N6_123
REMARK   53  A    between atoms: P_128  and  OP1_129
REMARK   54  A    between atoms: P_128  and  O5'_131
REMARK   55  A    between atoms: O5'_131  and  C5'_132
REMARK   56  A    between atoms: C5'_132  and  C4'_133
REMARK   57  A    between atoms: C3'_135  and  O3'_136
REMARK   58  A    between atoms: O3'_136  and  P_148
REMARK   59  A    between atoms: C2'_137  and  O2'_138
REMARK   60  A    between atoms: C1'_139  and  N1_140
REMARK   61  A    between atoms: P_148  and  OP1_149
REMARK   62  A    between atoms: P_148  and  O5'_151
REMARK   63  A    between atoms: O5'_151  and  C5'_152
REMARK   64  A    between atoms: C5'_152  and  C4'_153
REMARK   65  A    between atoms: C3'_155  and  O3'_156
REMARK   66  A    between atoms: O3'_156  and  P_168
REMARK   67  A    between atoms: C2'_157  and  O2'_158
REMARK   68  A    between atoms: C1'_159  and  N1_160
REMARK   69  A    between atoms: P_168  and  OP2_170
REMARK   70  A    between atoms: P_168  and  O5'_171
REMARK   71  A    between atoms: O5'_171  and  C5'_172
REMARK   72  A    between atoms: C5'_172  and  C4'_173
REMARK   73  A    between atoms: C3'_175  and  O3'_176
REMARK   74  A    between atoms: O3'_176  and  P_190
REMARK   75  A    between atoms: C2'_177  and  O2'_178
REMARK   76  A    between atoms: C1'_179  and  N9_180
REMARK   77  A    between atoms: P_190  and  OP1_191
REMARK   78  A    between atoms: P_190  and  O5'_193
REMARK   79  A    between atoms: O5'_193  and  C5'_194
REMARK   80  A    between atoms: C5'_194  and  C4'_195
REMARK   81  A    between atoms: C3'_197  and  O3'_198
REMARK   82  A    between atoms: O3'_198  and  P_210
REMARK   83  A    between atoms: C2'_199  and  O2'_200
REMARK   84  A    between atoms: C1'_201  and  N1_202
REMARK   85  A    between atoms: P_210  and  OP1_211
REMARK   86  A    between atoms: P_210  and  O5'_213
REMARK   87  A    between atoms: O5'_213  and  C5'_214
REMARK   88  A    between atoms: C5'_214  and  C4'_215
REMARK   89  A    between atoms: C3'_217  and  O3'_218
REMARK   90  A    between atoms: O3'_218  and  P_230
REMARK   91  A    between atoms: C2'_219  and  O2'_220
REMARK   92  A    between atoms: C1'_221  and  N1_222
REMARK   93  A    between atoms: P_230  and  OP1_231
REMARK   94  A    between atoms: P_230  and  O5'_233
REMARK   95  A    between atoms: O5'_233  and  C5'_234
REMARK   96  A    between atoms: C5'_234  and  C4'_235
REMARK   97  A    between atoms: C3'_237  and  O3'_238
REMARK   98  A    between atoms: O3'_238  and  P_250
REMARK   99  A    between atoms: C2'_239  and  O2'_240
REMARK  100  A    between atoms: C1'_241  and  N1_242
REMARK  101  A    between atoms: P_250  and  OP1_251
REMARK  102  A    between atoms: P_250  and  O5'_253
REMARK  103  A    between atoms: O5'_253  and  C5'_254
REMARK  104  A    between atoms: C5'_254  and  C4'_255
REMARK  105  A    between atoms: C3'_257  and  O3'_258
REMARK  106  A    between atoms: O3'_258  and  P_270
REMARK  107  A    between atoms: C2'_259  and  O2'_260
REMARK  108  A    between atoms: C1'_261  and  N1_262
REMARK  109  A    between atoms: P_270  and  OP1_271
REMARK  110  A    between atoms: P_270  and  O5'_273
REMARK  111  A    between atoms: O5'_273  and  C5'_274
REMARK  112  A    between atoms: C5'_274  and  C4'_275
REMARK  113  A    between atoms: C3'_277  and  O3'_278
REMARK  114  A    between atoms: O3'_278  and  P_292
REMARK  115  A    between atoms: C2'_279  and  O2'_280
REMARK  116  A    between atoms: C1'_281  and  N9_282
REMARK  117  A    between atoms: C6_286  and  N6_287
REMARK  118  A    between atoms: P_292  and  OP2_294
REMARK  119  A    between atoms: P_292  and  O5'_295
REMARK  120  A    between atoms: O5'_295  and  C5'_296
REMARK  121  A    between atoms: C5'_296  and  C4'_297
REMARK  122  A    between atoms: C3'_299  and  O3'_300
REMARK  123  A    between atoms: O3'_300  and  P_312
REMARK  124  A    between atoms: C2'_301  and  O2'_302
REMARK  125  A    between atoms: C1'_303  and  N1_304
REMARK  126  A    between atoms: P_312  and  OP1_313
REMARK  127  A    between atoms: P_312  and  O5'_315
REMARK  128  A    between atoms: O5'_315  and  C5'_316
REMARK  129  A    between atoms: C5'_316  and  C4'_317
REMARK  130  A    between atoms: C3'_319  and  O3'_320
REMARK  131  A    between atoms: O3'_320  and  P_332
REMARK  132  A    between atoms: C2'_321  and  O2'_322
REMARK  133  A    between atoms: C1'_323  and  N1_324
REMARK  134  A    between atoms: P_332  and  OP2_334
REMARK  135  A    between atoms: P_332  and  O5'_335
REMARK  136  A    between atoms: O5'_335  and  C5'_336
REMARK  137  A    between atoms: C5'_336  and  C4'_337
REMARK  138  A    between atoms: C3'_339  and  O3'_340
REMARK  139  A    between atoms: O3'_340  and  P_352
REMARK  140  A    between atoms: C2'_341  and  O2'_342
REMARK  141  A    between atoms: C1'_343  and  N1_344
REMARK  142  A    between atoms: P_352  and  OP1_353
REMARK  143  A    between atoms: P_352  and  O5'_355
REMARK  144  A    between atoms: O5'_355  and  C5'_356
REMARK  145  A    between atoms: C5'_356  and  C4'_357
REMARK  146  A    between atoms: C3'_359  and  O3'_360
REMARK  147  A    between atoms: O3'_360  and  P_375
REMARK  148  A    between atoms: C2'_361  and  O2'_362
REMARK  149  A    between atoms: C1'_363  and  N9_364
REMARK  150  A    between atoms: P_375  and  OP1_376
REMARK  151  A    between atoms: P_375  and  O5'_378
REMARK  152  A    between atoms: O5'_378  and  C5'_379
REMARK  153  A    between atoms: C5'_379  and  C4'_380
REMARK  154  A    between atoms: C3'_382  and  O3'_383
REMARK  155  A    between atoms: O3'_383  and  P_397
REMARK  156  A    between atoms: C2'_384  and  O2'_385
REMARK  157  A    between atoms: C1'_386  and  N9_387
REMARK  158  A    between atoms: C6_391  and  N6_392
REMARK  159  A    between atoms: P_397  and  OP1_398
REMARK  160  A    between atoms: P_397  and  O5'_400
REMARK  161  A    between atoms: O5'_400  and  C5'_401
REMARK  162  A    between atoms: C5'_401  and  C4'_402
REMARK  163  A    between atoms: C3'_404  and  O3'_405
REMARK  164  A    between atoms: O3'_405  and  P_419
REMARK  165  A    between atoms: C2'_406  and  O2'_407
REMARK  166  A    between atoms: C1'_408  and  N9_409
REMARK  167  A    between atoms: C6_413  and  N6_414
REMARK  168  A    between atoms: P_419  and  OP1_420
REMARK  169  A    between atoms: P_419  and  O5'_422
REMARK  170  A    between atoms: O5'_422  and  C5'_423
REMARK  171  A    between atoms: C5'_423  and  C4'_424
REMARK  172  A    between atoms: C3'_426  and  O3'_427
REMARK  173  A    between atoms: O3'_427  and  P_441
REMARK  174  A    between atoms: C2'_428  and  O2'_429
REMARK  175  A    between atoms: C1'_430  and  N9_431
REMARK  176  A    between atoms: C6_435  and  N6_436
REMARK  177  A    between atoms: P_441  and  OP1_442
REMARK  178  A    between atoms: P_441  and  O5'_444
REMARK  179  A    between atoms: O5'_444  and  C5'_445
REMARK  180  A    between atoms: C5'_445  and  C4'_446
REMARK  181  A    between atoms: C3'_448  and  O3'_449
REMARK  182  A    between atoms: O3'_449  and  P_461
REMARK  183  A    between atoms: C2'_450  and  O2'_451
REMARK  184  A    between atoms: C1'_452  and  N1_453
REMARK  185  A    between atoms: P_461  and  OP1_462
REMARK  186  A    between atoms: P_461  and  O5'_464
REMARK  187  A    between atoms: O5'_464  and  C5'_465
REMARK  188  A    between atoms: C5'_465  and  C4'_466
REMARK  189  A    between atoms: C3'_468  and  O3'_469
REMARK  190  A    between atoms: O3'_469  and  P_481
REMARK  191  A    between atoms: C2'_470  and  O2'_471
REMARK  192  A    between atoms: C1'_472  and  N1_473
REMARK  193  A    between atoms: P_481  and  OP2_483
REMARK  194  A    between atoms: P_481  and  O5'_484
REMARK  195  A    between atoms: O5'_484  and  C5'_485
REMARK  196  A    between atoms: C5'_485  and  C4'_486
REMARK  197  A    between atoms: C3'_488  and  O3'_489
REMARK  198  A    between atoms: O3'_489  and  P_501
REMARK  199  A    between atoms: C2'_490  and  O2'_491
REMARK  200  A    between atoms: C1'_492  and  N1_493
REMARK  201  A    between atoms: P_501  and  OP2_503
REMARK  202  A    between atoms: P_501  and  O5'_504
REMARK  203  A    between atoms: O5'_504  and  C5'_505
REMARK  204  A    between atoms: C5'_505  and  C4'_506
REMARK  205  A    between atoms: C3'_508  and  O3'_509
REMARK  206  A    between atoms: O3'_509  and  P_521
REMARK  207  A    between atoms: C2'_510  and  O2'_511
REMARK  208  A    between atoms: C1'_512  and  N1_513
REMARK  209  A    between atoms: P_521  and  OP1_522
REMARK  210  A    between atoms: P_521  and  O5'_524
REMARK  211  A    between atoms: O5'_524  and  C5'_525
REMARK  212  A    between atoms: C5'_525  and  C4'_526
REMARK  213  A    between atoms: C3'_528  and  O3'_529
REMARK  214  A    between atoms: O3'_529  and  P_541
REMARK  215  A    between atoms: C2'_530  and  O2'_531
REMARK  216  A    between atoms: C1'_532  and  N1_533
REMARK  217  A    between atoms: P_541  and  OP1_542
REMARK  218  A    between atoms: P_541  and  O5'_544
REMARK  219  A    between atoms: O5'_544  and  C5'_545
REMARK  220  A    between atoms: C5'_545  and  C4'_546
REMARK  221  A    between atoms: C3'_548  and  O3'_549
REMARK  222  A    between atoms: O3'_549  and  P_561
REMARK  223  A    between atoms: C2'_550  and  O2'_551
REMARK  224  A    between atoms: C1'_552  and  N1_553
REMARK  225  A    between atoms: P_561  and  OP1_562
REMARK  226  A    between atoms: P_561  and  O5'_564
REMARK  227  A    between atoms: O5'_564  and  C5'_565
REMARK  228  A    between atoms: C5'_565  and  C4'_566
REMARK  229  A    between atoms: C3'_568  and  O3'_569
REMARK  230  A    between atoms: O3'_569  and  P_581
REMARK  231  A    between atoms: C2'_570  and  O2'_571
REMARK  232  A    between atoms: C1'_572  and  N1_573
REMARK  233  A    between atoms: P_581  and  OP1_582
REMARK  234  A    between atoms: P_581  and  O5'_584
REMARK  235  A    between atoms: O5'_584  and  C5'_585
REMARK  236  A    between atoms: C5'_585  and  C4'_586
REMARK  237  A    between atoms: C3'_588  and  O3'_589
REMARK  238  A    between atoms: O3'_589  and  P_603
REMARK  239  A    between atoms: C2'_590  and  O2'_591
REMARK  240  A    between atoms: C1'_592  and  N9_593
REMARK  241  A    between atoms: C6_597  and  N6_598
REMARK  242  A    between atoms: P_603  and  OP1_604
REMARK  243  A    between atoms: P_603  and  O5'_606
REMARK  244  A    between atoms: O5'_606  and  C5'_607
REMARK  245  A    between atoms: C5'_607  and  C4'_608
REMARK  246  A    between atoms: C3'_610  and  O3'_611
REMARK  247  A    between atoms: O3'_611  and  P_625
REMARK  248  A    between atoms: C2'_612  and  O2'_613
REMARK  249  A    between atoms: C1'_614  and  N9_615
REMARK  250  A    between atoms: C6_619  and  N6_620
REMARK  251  A    between atoms: P_625  and  OP1_626
REMARK  252  A    between atoms: P_625  and  O5'_628
REMARK  253  A    between atoms: O5'_628  and  C5'_629
REMARK  254  A    between atoms: C5'_629  and  C4'_630
REMARK  255  A    between atoms: C3'_632  and  O3'_633
REMARK  256  A    between atoms: O3'_633  and  P_647
REMARK  257  A    between atoms: C2'_634  and  O2'_635
REMARK  258  A    between atoms: C1'_636  and  N9_637
REMARK  259  A    between atoms: C6_641  and  N6_642
REMARK  260  A    between atoms: P_647  and  OP2_649
REMARK  261  A    between atoms: P_647  and  O5'_650
REMARK  262  A    between atoms: O5'_650  and  C5'_651
REMARK  263  A    between atoms: C5'_651  and  C4'_652
REMARK  264  A    between atoms: C3'_654  and  O3'_655
REMARK  265  A    between atoms: O3'_655  and  P_669
REMARK  266  A    between atoms: C2'_656  and  O2'_657
REMARK  267  A    between atoms: C1'_658  and  N9_659
REMARK  268  A    between atoms: P_669  and  OP2_671
REMARK  269  A    between atoms: P_669  and  O5'_672
REMARK  270  A    between atoms: O5'_672  and  C5'_673
REMARK  271  A    between atoms: C5'_673  and  C4'_674
REMARK  272  A    between atoms: C3'_676  and  O3'_677
REMARK  273  A    between atoms: O3'_677  and  P_689
REMARK  274  A    between atoms: C2'_678  and  O2'_679
REMARK  275  A    between atoms: C1'_680  and  N1_681
REMARK  276  A    between atoms: P_689  and  OP2_691
REMARK  277  A    between atoms: P_689  and  O5'_692
REMARK  278  A    between atoms: O5'_692  and  C5'_693
REMARK  279  A    between atoms: C5'_693  and  C4'_694
REMARK  280  A    between atoms: C3'_696  and  O3'_697
REMARK  281  A    between atoms: O3'_697  and  P_711
REMARK  282  A    between atoms: C2'_698  and  O2'_699
REMARK  283  A    between atoms: C1'_700  and  N9_701
REMARK  284  A    between atoms: P_711  and  OP2_713
REMARK  285  A    between atoms: P_711  and  O5'_714
REMARK  286  A    between atoms: O5'_714  and  C5'_715
REMARK  287  A    between atoms: C5'_715  and  C4'_716
REMARK  288  A    between atoms: C3'_718  and  O3'_719
REMARK  289  A    between atoms: O3'_719  and  P_733
REMARK  290  A    between atoms: C2'_720  and  O2'_721
REMARK  291  A    between atoms: C1'_722  and  N9_723
REMARK  292  A    between atoms: P_733  and  OP1_734
REMARK  293  A    between atoms: P_733  and  O5'_736
REMARK  294  A    between atoms: O5'_736  and  C5'_737
REMARK  295  A    between atoms: C5'_737  and  C4'_738
REMARK  296  A    between atoms: C3'_740  and  O3'_741
REMARK  297  A    between atoms: O3'_741  and  P_753
REMARK  298  A    between atoms: C2'_742  and  O2'_743
REMARK  299  A    between atoms: C1'_744  and  N1_745
REMARK  300  A    between atoms: P_753  and  OP1_754
REMARK  301  A    between atoms: P_753  and  O5'_756
REMARK  302  A    between atoms: O5'_756  and  C5'_757
REMARK  303  A    between atoms: C5'_757  and  C4'_758
REMARK  304  A    between atoms: C3'_760  and  O3'_761
REMARK  305  A    between atoms: O3'_761  and  P_775
REMARK  306  A    between atoms: C2'_762  and  O2'_763
REMARK  307  A    between atoms: C1'_764  and  N9_765
REMARK  308  A    between atoms: C6_769  and  N6_770
REMARK  309  A    between atoms: P_775  and  OP1_776
REMARK  310  A    between atoms: P_775  and  O5'_778
REMARK  311  A    between atoms: O5'_778  and  C5'_779
REMARK  312  A    between atoms: C5'_779  and  C4'_780
REMARK  313  A    between atoms: C3'_782  and  O3'_783
REMARK  314  A    between atoms: O3'_783  and  P_795
REMARK  315  A    between atoms: C2'_784  and  O2'_785
REMARK  316  A    between atoms: C1'_786  and  N1_787
REMARK  317  A    between atoms: P_795  and  OP2_797
REMARK  318  A    between atoms: P_795  and  O5'_798
REMARK  319  A    between atoms: O5'_798  and  C5'_799
REMARK  320  A    between atoms: C5'_799  and  C4'_800
REMARK  321  A    between atoms: C3'_802  and  O3'_803
REMARK  322  A    between atoms: O3'_803  and  P_815
REMARK  323  A    between atoms: C2'_804  and  O2'_805
REMARK  324  A    between atoms: C1'_806  and  N1_807
REMARK  325  A    between atoms: P_815  and  OP2_817
REMARK  326  A    between atoms: P_815  and  O5'_818
REMARK  327  A    between atoms: O5'_818  and  C5'_819
REMARK  328  A    between atoms: C5'_819  and  C4'_820
REMARK  329  A    between atoms: C3'_822  and  O3'_823
REMARK  330  A    between atoms: O3'_823  and  P_835
REMARK  331  A    between atoms: C2'_824  and  O2'_825
REMARK  332  A    between atoms: C1'_826  and  N1_827
REMARK  333  A    between atoms: P_835  and  OP2_837
REMARK  334  A    between atoms: P_835  and  O5'_838
REMARK  335  A    between atoms: O5'_838  and  C5'_839
REMARK  336  A    between atoms: C5'_839  and  C4'_840
REMARK  337  A    between atoms: C3'_842  and  O3'_843
REMARK  338  A    between atoms: O3'_843  and  P_855
REMARK  339  A    between atoms: C2'_844  and  O2'_845
REMARK  340  A    between atoms: C1'_846  and  N1_847
REMARK  341  A    between atoms: P_855  and  OP2_857
REMARK  342  A    between atoms: P_855  and  O5'_858
REMARK  343  A    between atoms: O5'_858  and  C5'_859
REMARK  344  A    between atoms: C5'_859  and  C4'_860
REMARK  345  A    between atoms: C3'_862  and  O3'_863
REMARK  346  A    between atoms: O3'_863  and  P_875
REMARK  347  A    between atoms: C2'_864  and  O2'_865
REMARK  348  A    between atoms: C1'_866  and  N1_867
REMARK  349  A    between atoms: P_875  and  OP2_877
REMARK  350  A    between atoms: P_875  and  O5'_878
REMARK  351  A    between atoms: O5'_878  and  C5'_879
REMARK  352  A    between atoms: C5'_879  and  C4'_880
REMARK  353  A    between atoms: C3'_882  and  O3'_883
REMARK  354  A    between atoms: O3'_883  and  P_897
REMARK  355  A    between atoms: C2'_884  and  O2'_885
REMARK  356  A    between atoms: C1'_886  and  N9_887
REMARK  357  A    between atoms: C6_891  and  N6_892
REMARK  358  A    between atoms: P_897  and  OP1_898
REMARK  359  A    between atoms: P_897  and  O5'_900
REMARK  360  A    between atoms: O5'_900  and  C5'_901
REMARK  361  A    between atoms: C5'_901  and  C4'_902
REMARK  362  A    between atoms: C3'_904  and  O3'_905
REMARK  363  A    between atoms: O3'_905  and  P_917
REMARK  364  A    between atoms: C2'_906  and  O2'_907
REMARK  365  A    between atoms: C1'_908  and  N1_909
REMARK  366  A    between atoms: P_917  and  OP1_918
REMARK  367  A    between atoms: P_917  and  O5'_920
REMARK  368  A    between atoms: O5'_920  and  C5'_921
REMARK  369  A    between atoms: C5'_921  and  C4'_922
REMARK  370  A    between atoms: C3'_924  and  O3'_925
REMARK  371  A    between atoms: O3'_925  and  P_937
REMARK  372  A    between atoms: C2'_926  and  O2'_927
REMARK  373  A    between atoms: C1'_928  and  N1_929
REMARK  374  A    between atoms: P_937  and  OP1_938
REMARK  375  A    between atoms: P_937  and  O5'_940
REMARK  376  A    between atoms: O5'_940  and  C5'_941
REMARK  377  A    between atoms: C5'_941  and  C4'_942
REMARK  378  A    between atoms: C3'_944  and  O3'_945
REMARK  379  A    between atoms: O3'_945  and  P_957
REMARK  380  A    between atoms: C2'_946  and  O2'_947
REMARK  381  A    between atoms: C1'_948  and  N1_949
REMARK  382  A    between atoms: P_957  and  OP2_959
REMARK  383  A    between atoms: P_957  and  O5'_960
REMARK  384  A    between atoms: O5'_960  and  C5'_961
REMARK  385  A    between atoms: C5'_961  and  C4'_962
REMARK  386  A    between atoms: C3'_964  and  O3'_965
REMARK  387  A    between atoms: O3'_965  and  P_977
REMARK  388  A    between atoms: C2'_966  and  O2'_967
REMARK  389  A    between atoms: C1'_968  and  N1_969
REMARK  390  A    between atoms: P_977  and  OP2_979
REMARK  391  A    between atoms: P_977  and  O5'_980
REMARK  392  A    between atoms: O5'_980  and  C5'_981
REMARK  393  A    between atoms: C5'_981  and  C4'_982
REMARK  394  A    between atoms: C3'_984  and  O3'_985
REMARK  395  A    between atoms: O3'_985  and  P_999
REMARK  396  A    between atoms: C2'_986  and  O2'_987
REMARK  397  A    between atoms: C1'_988  and  N9_989
REMARK  398  A    between atoms: P_999  and  OP2_1001
REMARK  399  A    between atoms: P_999  and  O5'_1002
REMARK  400  A    between atoms: O5'_1002  and  C5'_1003
REMARK  401  A    between atoms: C5'_1003  and  C4'_1004
REMARK  402  A    between atoms: C3'_1006  and  O3'_1007
REMARK  403  A    between atoms: O3'_1007  and  P_1019
REMARK  404  A    between atoms: C2'_1008  and  O2'_1009
REMARK  405  A    between atoms: C1'_1010  and  N1_1011
REMARK  406  A    between atoms: P_1019  and  OP2_1021
REMARK  407  A    between atoms: P_1019  and  O5'_1022
REMARK  408  A    between atoms: O5'_1022  and  C5'_1023
REMARK  409  A    between atoms: C5'_1023  and  C4'_1024
REMARK  410  A    between atoms: C3'_1026  and  O3'_1027
REMARK  411  A    between atoms: O3'_1027  and  P_1039
REMARK  412  A    between atoms: C2'_1028  and  O2'_1029
REMARK  413  A    between atoms: C1'_1030  and  N1_1031
REMARK  414  A    between atoms: P_1039  and  OP2_1041
REMARK  415  A    between atoms: P_1039  and  O5'_1042
REMARK  416  A    between atoms: O5'_1042  and  C5'_1043
REMARK  417  A    between atoms: C5'_1043  and  C4'_1044
REMARK  418  A    between atoms: C3'_1046  and  O3'_1047
REMARK  419  A    between atoms: O3'_1047  and  P_1059
REMARK  420  A    between atoms: C2'_1048  and  O2'_1049
REMARK  421  A    between atoms: C1'_1050  and  N1_1051
REMARK  422  A    between atoms: P_1059  and  OP2_1061
REMARK  423  A    between atoms: P_1059  and  O5'_1062
REMARK  424  A    between atoms: O5'_1062  and  C5'_1063
REMARK  425  A    between atoms: C5'_1063  and  C4'_1064
REMARK  426  A    between atoms: C3'_1066  and  O3'_1067
REMARK  427  A    between atoms: O3'_1067  and  P_1079
REMARK  428  A    between atoms: C2'_1068  and  O2'_1069
REMARK  429  A    between atoms: C1'_1070  and  N1_1071
REMARK  430  A    between atoms: P_1079  and  OP2_1081
REMARK  431  A    between atoms: P_1079  and  O5'_1082
REMARK  432  A    between atoms: O5'_1082  and  C5'_1083
REMARK  433  A    between atoms: C5'_1083  and  C4'_1084
REMARK  434  A    between atoms: C3'_1086  and  O3'_1087
REMARK  435  A    between atoms: O3'_1087  and  P_1101
REMARK  436  A    between atoms: C2'_1088  and  O2'_1089
REMARK  437  A    between atoms: C1'_1090  and  N9_1091
REMARK  438  A    between atoms: C6_1095  and  N6_1096
REMARK  439  A    between atoms: P_1101  and  OP1_1102
REMARK  440  A    between atoms: P_1101  and  O5'_1104
REMARK  441  A    between atoms: O5'_1104  and  C5'_1105
REMARK  442  A    between atoms: C5'_1105  and  C4'_1106
REMARK  443  A    between atoms: C3'_1108  and  O3'_1109
REMARK  444  A    between atoms: O3'_1109  and  P_1123
REMARK  445  A    between atoms: C2'_1110  and  O2'_1111
REMARK  446  A    between atoms: C1'_1112  and  N9_1113
REMARK  447  A    between atoms: C6_1117  and  N6_1118
REMARK  448  A    between atoms: P_1123  and  OP1_1124
REMARK  449  A    between atoms: P_1123  and  O5'_1126
REMARK  450  A    between atoms: O5'_1126  and  C5'_1127
REMARK  451  A    between atoms: C5'_1127  and  C4'_1128
REMARK  452  A    between atoms: C3'_1130  and  O3'_1131
REMARK  453  A    between atoms: O3'_1131  and  P_1145
REMARK  454  A    between atoms: C2'_1132  and  O2'_1133
REMARK  455  A    between atoms: C1'_1134  and  N9_1135
REMARK  456  A    between atoms: C6_1139  and  N6_1140
REMARK  457  A    between atoms: P_1145  and  OP1_1146
REMARK  458  A    between atoms: P_1145  and  O5'_1148
REMARK  459  A    between atoms: O5'_1148  and  C5'_1149
REMARK  460  A    between atoms: C5'_1149  and  C4'_1150
REMARK  461  A    between atoms: C3'_1152  and  O3'_1153
REMARK  462  A    between atoms: O3'_1153  and  P_1167
REMARK  463  A    between atoms: C2'_1154  and  O2'_1155
REMARK  464  A    between atoms: C1'_1156  and  N9_1157
REMARK  465  A    between atoms: C6_1161  and  N6_1162
REMARK  466  A    between atoms: P_1167  and  OP1_1168
REMARK  467  A    between atoms: P_1167  and  O5'_1170
REMARK  468  A    between atoms: O5'_1170  and  C5'_1171
REMARK  469  A    between atoms: C5'_1171  and  C4'_1172
REMARK  470  A    between atoms: C3'_1174  and  O3'_1175
REMARK  471  A    between atoms: O3'_1175  and  P_1189
REMARK  472  A    between atoms: C2'_1176  and  O2'_1177
REMARK  473  A    between atoms: C1'_1178  and  N9_1179
REMARK  474  A    between atoms: C6_1183  and  N6_1184
REMARK  475  A    between atoms: P_1189  and  OP2_1191
REMARK  476  A    between atoms: P_1189  and  O5'_1192
REMARK  477  A    between atoms: O5'_1192  and  C5'_1193
REMARK  478  A    between atoms: C5'_1193  and  C4'_1194
REMARK  479  A    between atoms: C3'_1196  and  O3'_1197
REMARK  480  A    between atoms: O3'_1197  and  P_1209
REMARK  481  A    between atoms: C2'_1198  and  O2'_1199
REMARK  482  A    between atoms: C1'_1200  and  N1_1201
REMARK  483  A    between atoms: P_1209  and  OP2_1211
REMARK  484  A    between atoms: P_1209  and  O5'_1212
REMARK  485  A    between atoms: O5'_1212  and  C5'_1213
REMARK  486  A    between atoms: C5'_1213  and  C4'_1214
REMARK  487  A    between atoms: C3'_1216  and  O3'_1217
REMARK  488  A    between atoms: O3'_1217  and  P_1231
REMARK  489  A    between atoms: C2'_1218  and  O2'_1219
REMARK  490  A    between atoms: C1'_1220  and  N9_1221
REMARK  491  A    between atoms: P_1231  and  OP2_1233
REMARK  492  A    between atoms: P_1231  and  O5'_1234
REMARK  493  A    between atoms: O5'_1234  and  C5'_1235
REMARK  494  A    between atoms: C5'_1235  and  C4'_1236
REMARK  495  A    between atoms: C3'_1238  and  O3'_1239
REMARK  496  A    between atoms: O3'_1239  and  P_1254
REMARK  497  A    between atoms: C2'_1240  and  O2'_1241
REMARK  498  A    between atoms: C1'_1242  and  N9_1243
REMARK  499  A    between atoms: P_1254  and  OP2_1256
REMARK  500  A    between atoms: P_1254  and  O5'_1257
REMARK  501  A    between atoms: O5'_1257  and  C5'_1258
REMARK  502  A    between atoms: C5'_1258  and  C4'_1259
REMARK  503  A    between atoms: C3'_1261  and  O3'_1262
REMARK  504  A    between atoms: O3'_1262  and  P_1276
REMARK  505  A    between atoms: C2'_1263  and  O2'_1264
REMARK  506  A    between atoms: C1'_1265  and  N9_1266
REMARK  507  A    between atoms: P_1276  and  OP2_1278
REMARK  508  A    between atoms: P_1276  and  O5'_1279
REMARK  509  A    between atoms: O5'_1279  and  C5'_1280
REMARK  510  A    between atoms: C5'_1280  and  C4'_1281
REMARK  511  A    between atoms: C3'_1283  and  O3'_1284
REMARK  512  A    between atoms: O3'_1284  and  P_1296
REMARK  513  A    between atoms: C2'_1285  and  O2'_1286
REMARK  514  A    between atoms: C1'_1287  and  N1_1288
REMARK  515  A    between atoms: P_1296  and  OP1_1297
REMARK  516  A    between atoms: P_1296  and  O5'_1299
REMARK  517  A    between atoms: O5'_1299  and  C5'_1300
REMARK  518  A    between atoms: C5'_1300  and  C4'_1301
REMARK  519  A    between atoms: C3'_1303  and  O3'_1304
REMARK  520  A    between atoms: O3'_1304  and  P_1316
REMARK  521  A    between atoms: C2'_1305  and  O2'_1306
REMARK  522  A    between atoms: C1'_1307  and  N1_1308
REMARK  523  A    between atoms: P_1316  and  OP1_1317
REMARK  524  A    between atoms: P_1316  and  O5'_1319
REMARK  525  A    between atoms: O5'_1319  and  C5'_1320
REMARK  526  A    between atoms: C5'_1320  and  C4'_1321
REMARK  527  A    between atoms: C3'_1323  and  O3'_1324
REMARK  528  A    between atoms: O3'_1324  and  P_1338
REMARK  529  A    between atoms: C2'_1325  and  O2'_1326
REMARK  530  A    between atoms: C1'_1327  and  N9_1328
REMARK  531  A    between atoms: C6_1332  and  N6_1333
REMARK  532  A    between atoms: P_1338  and  OP1_1339
REMARK  533  A    between atoms: P_1338  and  O5'_1341
REMARK  534  A    between atoms: O5'_1341  and  C5'_1342
REMARK  535  A    between atoms: C5'_1342  and  C4'_1343
REMARK  536  A    between atoms: C3'_1345  and  O3'_1346
REMARK  537  A    between atoms: O3'_1346  and  P_1358
REMARK  538  A    between atoms: C2'_1347  and  O2'_1348
REMARK  539  A    between atoms: C1'_1349  and  N1_1350
REMARK  540  A    between atoms: P_1358  and  OP1_1359
REMARK  541  A    between atoms: P_1358  and  O5'_1361
REMARK  542  A    between atoms: O5'_1361  and  C5'_1362
REMARK  543  A    between atoms: C5'_1362  and  C4'_1363
REMARK  544  A    between atoms: C3'_1365  and  O3'_1366
REMARK  545  A    between atoms: O3'_1366  and  P_1380
REMARK  546  A    between atoms: C2'_1367  and  O2'_1368
REMARK  547  A    between atoms: C1'_1369  and  N9_1370
REMARK  548  A    between atoms: C6_1374  and  N6_1375
REMARK  549  A    between atoms: P_1380  and  OP1_1381
REMARK  550  A    between atoms: P_1380  and  O5'_1383
REMARK  551  A    between atoms: O5'_1383  and  C5'_1384
REMARK  552  A    between atoms: C5'_1384  and  C4'_1385
REMARK  553  A    between atoms: C3'_1387  and  O3'_1388
REMARK  554  A    between atoms: O3'_1388  and  P_1402
REMARK  555  A    between atoms: C2'_1389  and  O2'_1390
REMARK  556  A    between atoms: C1'_1391  and  N9_1392
REMARK  557  A    between atoms: C6_1396  and  N6_1397
REMARK  558  A    between atoms: P_1402  and  OP1_1403
REMARK  559  A    between atoms: P_1402  and  O5'_1405
REMARK  560  A    between atoms: O5'_1405  and  C5'_1406
REMARK  561  A    between atoms: C5'_1406  and  C4'_1407
REMARK  562  A    between atoms: C3'_1409  and  O3'_1410
REMARK  563  A    between atoms: O3'_1410  and  P_1424
REMARK  564  A    between atoms: C2'_1411  and  O2'_1412
REMARK  565  A    between atoms: C1'_1413  and  N9_1414
REMARK  566  A    between atoms: P_1424  and  OP1_1425
REMARK  567  A    between atoms: P_1424  and  O5'_1427
REMARK  568  A    between atoms: O5'_1427  and  C5'_1428
REMARK  569  A    between atoms: C5'_1428  and  C4'_1429
REMARK  570  A    between atoms: C3'_1431  and  O3'_1432
REMARK  571  A    between atoms: O3'_1432  and  P_1446
REMARK  572  A    between atoms: C2'_1433  and  O2'_1434
REMARK  573  A    between atoms: C1'_1435  and  N9_1436
REMARK  574  A    between atoms: P_1446  and  OP1_1447
REMARK  575  A    between atoms: P_1446  and  O5'_1449
REMARK  576  A    between atoms: O5'_1449  and  C5'_1450
REMARK  577  A    between atoms: C5'_1450  and  C4'_1451
REMARK  578  A    between atoms: C3'_1453  and  O3'_1454
REMARK  579  A    between atoms: O3'_1454  and  P_1468
REMARK  580  A    between atoms: C2'_1455  and  O2'_1456
REMARK  581  A    between atoms: C1'_1457  and  N9_1458
REMARK  582  A    between atoms: C6_1462  and  N6_1463
REMARK  583  A    between atoms: P_1468  and  OP1_1469
REMARK  584  A    between atoms: P_1468  and  O5'_1471
REMARK  585  A    between atoms: O5'_1471  and  C5'_1472
REMARK  586  A    between atoms: C5'_1472  and  C4'_1473
REMARK  587  A    between atoms: C3'_1475  and  O3'_1476
REMARK  588  A    between atoms: O3'_1476  and  P_1488
REMARK  589  A    between atoms: C2'_1477  and  O2'_1478
REMARK  590  A    between atoms: C1'_1479  and  N1_1480
REMARK  591  A    between atoms: P_1488  and  OP1_1489
REMARK  592  A    between atoms: P_1488  and  O5'_1491
REMARK  593  A    between atoms: O5'_1491  and  C5'_1492
REMARK  594  A    between atoms: C5'_1492  and  C4'_1493
REMARK  595  A    between atoms: C3'_1495  and  O3'_1496
REMARK  596  A    between atoms: O3'_1496  and  P_1508
REMARK  597  A    between atoms: C2'_1497  and  O2'_1498
REMARK  598  A    between atoms: C1'_1499  and  N1_1500
REMARK  599  A    between atoms: P_1508  and  OP1_1509
REMARK  600  A    between atoms: P_1508  and  O5'_1511
REMARK  601  A    between atoms: O5'_1511  and  C5'_1512
REMARK  602  A    between atoms: C5'_1512  and  C4'_1513
REMARK  603  A    between atoms: C3'_1515  and  O3'_1516
REMARK  604  A    between atoms: O3'_1516  and  P_1528
REMARK  605  A    between atoms: C2'_1517  and  O2'_1518
REMARK  606  A    between atoms: C1'_1519  and  N1_1520
REMARK  607  A    between atoms: P_1528  and  OP1_1529
REMARK  608  A    between atoms: P_1528  and  O5'_1531
REMARK  609  A    between atoms: O5'_1531  and  C5'_1532
REMARK  610  A    between atoms: C5'_1532  and  C4'_1533
REMARK  611  A    between atoms: C3'_1535  and  O3'_1536
REMARK  612  A    between atoms: O3'_1536  and  P_1548
REMARK  613  A    between atoms: C2'_1537  and  O2'_1538
REMARK  614  A    between atoms: C1'_1539  and  N1_1540
REMARK  615  A    between atoms: P_1548  and  OP1_1549
REMARK  616  A    between atoms: P_1548  and  O5'_1551
REMARK  617  A    between atoms: O5'_1551  and  C5'_1552
REMARK  618  A    between atoms: C5'_1552  and  C4'_1553
REMARK  619  A    between atoms: C3'_1555  and  O3'_1556
REMARK  620  A    between atoms: O3'_1556  and  P_1568
REMARK  621  A    between atoms: C2'_1557  and  O2'_1558
REMARK  622  A    between atoms: C1'_1559  and  N1_1560
REMARK  623  A    between atoms: P_1568  and  OP2_1570
REMARK  624  A    between atoms: P_1568  and  O5'_1571
REMARK  625  A    between atoms: O5'_1571  and  C5'_1572
REMARK  626  A    between atoms: C5'_1572  and  C4'_1573
REMARK  627  A    between atoms: C3'_1575  and  O3'_1576
REMARK  628  A    between atoms: C2'_1577  and  O2'_1578
REMARK  629  A    between atoms: C1'_1579  and  N9_1580
REMARK  630  A    between atoms: C6_1584  and  N6_1585
REMARK                            x       y       z     vdW  Elec       q    Type
REMARK                         _______ _______ _______ _____ _____    ______ ____
ROOT
ATOM      1  P   U   B  39     -30.513  30.223  17.923  0.00  0.00    +0.000 P 
ATOM      2  OP1 U   B  39     -29.145  29.979  18.440  0.00  0.00    +0.000 OA
ENDROOT
BRANCH   1   3
ATOM      3  OP2 U   B  39     -31.667  30.129  18.836  0.00  0.00    +0.000 OA
ATOM      4  H   U   B  39     -32.483  30.315  18.346  0.00  0.00    +0.000 HD
ENDBRANCH   1   3
BRANCH   1   5
ATOM      5  O5' U   B  39     -30.515  31.676  17.273  0.00  0.00    +0.000 OA
BRANCH   5   6
ATOM      6  C5' U   B  39     -31.706  32.376  16.979  0.00  0.00    +0.000 C 
BRANCH   6   7
ATOM      7  C4' U   B  39     -31.584  33.854  17.262  0.00  0.00    +0.000 C 
ATOM      8  O4' U   B  39     -31.567  34.076  18.697  0.00  0.00    +0.000 OA
ATOM      9  C3' U   B  39     -30.335  34.538  16.770  0.00  0.00    +0.000 C 
ATOM     10  C2' U   B  39     -30.274  35.781  17.651  0.00  0.00    +0.000 C 
ATOM     11  C1' U   B  39     -30.795  35.228  18.985  0.00  0.00    +0.000 C 
BRANCH  11  12
ATOM     12  N1  U   B  39     -29.705  34.868  19.918  0.00  0.00    +0.000 N 
ATOM     13  C2  U   B  39     -29.151  35.889  20.673  0.00  0.00    +0.000 A 
ATOM     14  O2  U   B  39     -29.528  37.048  20.600  0.00  0.00    +0.000 OA
ATOM     15  N3  U   B  39     -28.139  35.509  21.516  0.00  0.00    +0.000 N 
ATOM     16  C4  U   B  39     -27.638  34.240  21.685  0.00  0.00    +0.000 A 
ATOM     17  O4  U   B  39     -26.725  34.059  22.485  0.00  0.00    +0.000 OA
ATOM     18  C5  U   B  39     -28.261  33.241  20.876  0.00  0.00    +0.000 A 
ATOM     19  C6  U   B  39     -29.253  33.582  20.039  0.00  0.00    +0.000 A 
ATOM     20  H   U   B  39     -27.727  36.220  22.058  0.00  0.00    +0.000 HD
ENDBRANCH  11  12
BRANCH  10  21
ATOM     21  O2' U   B  39     -31.137  36.796  17.195  0.00  0.00    +0.000 OA
ATOM     22  H   U   B  39     -32.042  36.452  17.144  0.00  0.00    +0.000 HD
ENDBRANCH  10  21
BRANCH   9  23
ATOM     23  O3' U   B  39     -30.377  34.848  15.383  0.00  0.00    +0.000 OA
BRANCH  23  24
ATOM     24  P   C   B  40     -29.122  34.556  14.451  0.00  0.00    +0.000 P 
ATOM     25  OP1 C   B  40     -29.434  35.083  13.101  0.00  0.00    +0.000 OA
BRANCH  24  26
ATOM     26  OP2 C   B  40     -28.757  33.125  14.616  0.00  0.00    +0.000 OA
ATOM     27  H   C   B  40     -27.992  32.920  14.056  0.00  0.00    +0.000 HD
ENDBRANCH  24  26
BRANCH  24  28
ATOM     28  O5' C   B  40     -27.946  35.433  15.061  0.00  0.00    +0.000 OA
BRANCH  28  29
ATOM     29  C5' C   B  40     -27.947  36.856  14.944  0.00  0.00    +0.000 C 
BRANCH  29  30
ATOM     30  C4' C   B  40     -26.602  37.429  15.313  0.00  0.00    +0.000 C 
ATOM     31  O4' C   B  40     -26.309  37.157  16.708  0.00  0.00    +0.000 OA
ATOM     32  C3' C   B  40     -25.418  36.850  14.570  0.00  0.00    +0.000 C 
ATOM     33  C2' C   B  40     -24.256  37.159  15.508  0.00  0.00    +0.000 C 
ATOM     34  C1' C   B  40     -24.913  36.995  16.881  0.00  0.00    +0.000 C 
BRANCH  34  35
ATOM     35  N1  C   B  40     -24.656  35.683  17.508  0.00  0.00    +0.000 N 
ATOM     36  C2  C   B  40     -23.382  35.405  18.018  0.00  0.00    +0.000 A 
ATOM     37  O2  C   B  40     -22.492  36.260  17.918  0.00  0.00    +0.000 OA
ATOM     38  N3  C   B  40     -23.143  34.209  18.607  0.00  0.00    +0.000 NA
ATOM     39  C4  C   B  40     -24.117  33.306  18.703  0.00  0.00    +0.000 A 
ATOM     40  N4  C   B  40     -23.834  32.143  19.294  0.00  0.00    +0.000 N 
ATOM     41  C5  C   B  40     -25.421  33.561  18.200  0.00  0.00    +0.000 A 
ATOM     42  C6  C   B  40     -25.650  34.750  17.621  0.00  0.00    +0.000 A 
ATOM     43  H   C   B  40     -24.531  31.453  19.382  0.00  0.00    +0.000 HD
ATOM     44  H   C   B  40     -22.929  31.975  19.642  0.00  0.00    +0.000 HD
ENDBRANCH  34  35
BRANCH  33  45
ATOM     45  O2' C   B  40     -23.792  38.483  15.365  0.00  0.00    +0.000 OA
ATOM     46  H   C   B  40     -24.525  39.100  15.516  0.00  0.00    +0.000 HD
ENDBRANCH  33  45
BRANCH  32  47
ATOM     47  O3' C   B  40     -25.261  37.435  13.278  0.00  0.00    +0.000 OA
BRANCH  47  48
ATOM     48  P   U   B  41     -24.959  36.518  12.016  0.00  0.00    +0.000 P 
ATOM     49  OP1 U   B  41     -25.038  37.376  10.812  0.00  0.00    +0.000 OA
BRANCH  48  50
ATOM     50  OP2 U   B  41     -25.806  35.304  12.113  0.00  0.00    +0.000 OA
ATOM     51  H   U   B  41     -25.636  34.730  11.350  0.00  0.00    +0.000 HD
ENDBRANCH  48  50
BRANCH  48  52
ATOM     52  O5' U   B  41     -23.443  36.082  12.225  0.00  0.00    +0.000 OA
BRANCH  52  53
ATOM     53  C5' U   B  41     -22.393  37.043  12.192  0.00  0.00    +0.000 C 
BRANCH  53  54
ATOM     54  C4' U   B  41     -21.111  36.457  12.731  0.00  0.00    +0.000 C 
ATOM     55  O4' U   B  41     -21.281  36.101  14.133  0.00  0.00    +0.000 OA
ATOM     56  C3' U   B  41     -20.646  35.172  12.080  0.00  0.00    +0.000 C 
ATOM     57  C2' U   B  41     -19.753  34.565  13.158  0.00  0.00    +0.000 C 
ATOM     58  C1' U   B  41     -20.512  34.954  14.430  0.00  0.00    +0.000 C 
BRANCH  58  59
ATOM     59  N1  U   B  41     -21.414  33.885  14.906  0.00  0.00    +0.000 N 
ATOM     60  C2  U   B  41     -20.863  32.867  15.663  0.00  0.00    +0.000 A 
ATOM     61  O2  U   B  41     -19.677  32.819  15.943  0.00  0.00    +0.000 OA
ATOM     62  N3  U   B  41     -21.748  31.902  16.083  0.00  0.00    +0.000 N 
ATOM     63  C4  U   B  41     -23.100  31.854  15.828  0.00  0.00    +0.000 A 
ATOM     64  O4  U   B  41     -23.765  30.921  16.277  0.00  0.00    +0.000 OA
ATOM     65  C5  U   B  41     -23.597  32.940  15.042  0.00  0.00    +0.000 A 
ATOM     66  C6  U   B  41     -22.757  33.896  14.619  0.00  0.00    +0.000 A 
ATOM     67  H   U   B  41     -21.375  31.168  16.623  0.00  0.00    +0.000 HD
ENDBRANCH  58  59
BRANCH  57  68
ATOM     68  O2' U   B  41     -18.467  35.162  13.184  0.00  0.00    +0.000 OA
ATOM     69  H   U   B  41     -18.558  36.120  13.309  0.00  0.00    +0.000 HD
ENDBRANCH  57  68
BRANCH  56  70
ATOM     70  O3' U   B  41     -19.967  35.404  10.849  0.00  0.00    +0.000 OA
BRANCH  70  71
ATOM     71  P   U   B  42     -20.151  34.431   9.602  0.00  0.00    +0.000 P 
ATOM     72  OP1 U   B  42     -19.726  35.158   8.385  0.00  0.00    +0.000 OA
BRANCH  71  73
ATOM     73  OP2 U   B  42     -21.513  33.844   9.669  0.00  0.00    +0.000 OA
ATOM     74  H   U   B  42     -21.645  33.247   8.916  0.00  0.00    +0.000 HD
ENDBRANCH  71  73
BRANCH  71  75
ATOM     75  O5' U   B  42     -19.097  33.263   9.876  0.00  0.00    +0.000 OA
BRANCH  75  76
ATOM     76  C5' U   B  42     -17.694  33.511   9.831  0.00  0.00    +0.000 C 
BRANCH  76  77
ATOM     77  C4' U   B  42     -16.929  32.388  10.491  0.00  0.00    +0.000 C 
ATOM     78  O4' U   B  42     -17.364  32.247  11.872  0.00  0.00    +0.000 OA
ATOM     79  C3' U   B  42     -17.134  31.009   9.900  0.00  0.00    +0.000 C 
ATOM     80  C2' U   B  42     -16.766  30.096  11.065  0.00  0.00    +0.000 C 
ATOM     81  C1' U   B  42     -17.316  30.889  12.253  0.00  0.00    +0.000 C 
BRANCH  81  82
ATOM     82  N1  U   B  42     -18.673  30.458  12.649  0.00  0.00    +0.000 N 
ATOM     83  C2  U   B  42     -18.775  29.356  13.479  0.00  0.00    +0.000 A 
ATOM     84  O2  U   B  42     -17.806  28.741  13.886  0.00  0.00    +0.000 OA
ATOM     85  N3  U   B  42     -20.058  28.999  13.817  0.00  0.00    +0.000 N 
ATOM     86  C4  U   B  42     -21.225  29.619  13.419  0.00  0.00    +0.000 A 
ATOM     87  O4  U   B  42     -22.305  29.181  13.811  0.00  0.00    +0.000 OA
ATOM     88  C5  U   B  42     -21.036  30.749  12.562  0.00  0.00    +0.000 A 
ATOM     89  C6  U   B  42     -19.797  31.117  12.217  0.00  0.00    +0.000 A 
ATOM     90  H   U   B  42     -20.155  28.217  14.407  0.00  0.00    +0.000 HD
ENDBRANCH  81  82
BRANCH  80  91
ATOM     91  O2' U   B  42     -15.365  29.953  11.211  0.00  0.00    +0.000 OA
ATOM     92  H   U   B  42     -14.960  30.828  11.318  0.00  0.00    +0.000 HD
ENDBRANCH  80  91
BRANCH  79  93
ATOM     93  O3' U   B  42     -16.330  30.787   8.743  0.00  0.00    +0.000 OA
BRANCH  93  94
ATOM     94  P   A   B  43     -16.910  30.052   7.459  0.00  0.00    +0.000 P 
ATOM     95  OP1 A   B  43     -15.805  29.860   6.493  0.00  0.00    +0.000 OA
BRANCH  94  96
ATOM     96  OP2 A   B  43     -18.134  30.777   7.038  0.00  0.00    +0.000 OA
ATOM     97  H   A   B  43     -18.510  30.348   6.253  0.00  0.00    +0.000 HD
ENDBRANCH  94  96
BRANCH  94  98
ATOM     98  O5' A   B  43     -17.353  28.618   7.999  0.00  0.00    +0.000 OA
BRANCH  98  99
ATOM     99  C5' A   B  43     -16.396  27.681   8.480  0.00  0.00    +0.000 C 
BRANCH  99 100
ATOM    100  C4' A   B  43     -17.084  26.567   9.239  0.00  0.00    +0.000 C 
ATOM    101  O4' A   B  43     -17.835  27.128  10.353  0.00  0.00    +0.000 OA
ATOM    102  C3' A   B  43     -18.120  25.787   8.452  0.00  0.00    +0.000 C 
ATOM    103  C2' A   B  43     -19.023  25.246   9.551  0.00  0.00    +0.000 C 
ATOM    104  C1' A   B  43     -19.045  26.423  10.524  0.00  0.00    +0.000 C 
BRANCH 104 105
ATOM    105  N9  A   B  43     -20.164  27.343  10.261  0.00  0.00    +0.000 N 
ATOM    106  C8  A   B  43     -20.140  28.501   9.533  0.00  0.00    +0.000 A 
ATOM    107  N7  A   B  43     -21.299  29.112   9.472  0.00  0.00    +0.000 NA
ATOM    108  C5  A   B  43     -22.144  28.300  10.210  0.00  0.00    +0.000 A 
ATOM    109  C6  A   B  43     -23.510  28.397  10.528  0.00  0.00    +0.000 A 
ATOM    110  N1  A   B  43     -24.050  27.422  11.283  0.00  0.00    +0.000 NA
ATOM    111  C2  A   B  43     -23.263  26.420  11.688  0.00  0.00    +0.000 A 
ATOM    112  N3  A   B  43     -21.963  26.220  11.455  0.00  0.00    +0.000 NA
ATOM    113  C4  A   B  43     -21.457  27.207  10.700  0.00  0.00    +0.000 A 
BRANCH 109 114
ATOM    114  N6  A   B  43     -24.296  29.400  10.116  0.00  0.00    +0.000 N 
ATOM    115  H   A   B  43     -23.922  30.123   9.563  0.00  0.00    +0.000 HD
ATOM    116  H   A   B  43     -25.248  29.414  10.366  0.00  0.00    +0.000 HD
ENDBRANCH 109 114
ENDBRANCH 104 105
BRANCH 103 117
ATOM    117  O2' A   B  43     -18.455  24.123  10.201  0.00  0.00    +0.000 OA
ATOM    118  H   A   B  43     -17.583  24.360  10.553  0.00  0.00    +0.000 HD
ENDBRANCH 103 117
BRANCH 102 119
ATOM    119  O3' A   B  43     -17.534  24.774   7.647  0.00  0.00    +0.000 OA
BRANCH 119 120
ATOM    120  P   C   B  44     -18.286  24.251   6.349  0.00  0.00    +0.000 P 
ATOM    121  OP2 C   B  44     -18.786  25.416   5.567  0.00  0.00    +0.000 OA
BRANCH 120 122
ATOM    122  OP1 C   B  44     -17.402  23.260   5.685  0.00  0.00    +0.000 OA
ATOM    123  H   C   B  44     -17.837  22.923   4.886  0.00  0.00    +0.000 HD
ENDBRANCH 120 122
BRANCH 120 124
ATOM    124  O5' C   B  44     -19.539  23.474   6.956  0.00  0.00    +0.000 OA
BRANCH 124 125
ATOM    125  C5' C   B  44     -20.826  23.590   6.367  0.00  0.00    +0.000 C 
BRANCH 125 126
ATOM    126  C4' C   B  44     -21.888  23.270   7.389  0.00  0.00    +0.000 C 
ATOM    127  O4' C   B  44     -22.088  24.415   8.263  0.00  0.00    +0.000 OA
ATOM    128  C3' C   B  44     -23.267  22.986   6.827  0.00  0.00    +0.000 C 
ATOM    129  C2' C   B  44     -24.169  23.314   8.008  0.00  0.00    +0.000 C 
ATOM    130  C1' C   B  44     -23.454  24.537   8.593  0.00  0.00    +0.000 C 
BRANCH 130 131
ATOM    131  N1  C   B  44     -23.951  25.813   8.034  0.00  0.00    +0.000 N 
ATOM    132  C2  C   B  44     -25.246  26.239   8.347  0.00  0.00    +0.000 A 
ATOM    133  O2  C   B  44     -25.958  25.541   9.091  0.00  0.00    +0.000 OA
ATOM    134  N3  C   B  44     -25.706  27.407   7.831  0.00  0.00    +0.000 NA
ATOM    135  C4  C   B  44     -24.927  28.141   7.032  0.00  0.00    +0.000 A 
ATOM    136  N4  C   B  44     -25.419  29.278   6.551  0.00  0.00    +0.000 N 
ATOM    137  C5  C   B  44     -23.604  27.732   6.701  0.00  0.00    +0.000 A 
ATOM    138  C6  C   B  44     -23.163  26.578   7.217  0.00  0.00    +0.000 A 
ATOM    139  H   C   B  44     -24.869  29.841   5.959  0.00  0.00    +0.000 HD
ATOM    140  H   C   B  44     -26.333  29.557   6.786  0.00  0.00    +0.000 HD
ENDBRANCH 130 131
BRANCH 129 141
ATOM    141  O2' C   B  44     -24.186  22.277   8.977  0.00  0.00    +0.000 OA
ATOM    142  H   C   B  44     -23.280  22.098   9.274  0.00  0.00    +0.000 HD
ENDBRANCH 129 141
BRANCH 128 143
ATOM    143  O3' C   B  44     -23.390  21.637   6.383  0.00  0.00    +0.000 OA
BRANCH 143 144
ATOM    144  P   U   B  45     -24.363  21.271   5.187  0.00  0.00    +0.000 P 
ATOM    145  OP2 U   B  45     -24.242  22.324   4.151  0.00  0.00    +0.000 OA
BRANCH 144 146
ATOM    146  OP1 U   B  45     -24.130  19.855   4.832  0.00  0.00    +0.000 OA
ATOM    147  H   U   B  45     -24.715  19.605   4.100  0.00  0.00    +0.000 HD
ENDBRANCH 144 146
BRANCH 144 148
ATOM    148  O5' U   B  45     -25.813  21.388   5.839  0.00  0.00    +0.000 OA
BRANCH 148 149
ATOM    149  C5' U   B  45     -26.223  20.515   6.883  0.00  0.00    +0.000 C 
BRANCH 149 150
ATOM    150  C4' U   B  45     -27.699  20.650   7.155  0.00  0.00    +0.000 C 
ATOM    151  O4' U   B  45     -27.988  21.953   7.730  0.00  0.00    +0.000 OA
ATOM    152  C3' U   B  45     -28.589  20.585   5.931  0.00  0.00    +0.000 C 
ATOM    153  C2' U   B  45     -29.848  21.297   6.408  0.00  0.00    +0.000 C 
ATOM    154  C1' U   B  45     -29.255  22.402   7.288  0.00  0.00    +0.000 C 
BRANCH 154 155
ATOM    155  N1  U   B  45     -29.078  23.680   6.562  0.00  0.00    +0.000 N 
ATOM    156  C2  U   B  45     -30.212  24.428   6.278  0.00  0.00    +0.000 A 
ATOM    157  O2  U   B  45     -31.338  24.077   6.587  0.00  0.00    +0.000 OA
ATOM    158  N3  U   B  45     -29.978  25.607   5.610  0.00  0.00    +0.000 N 
ATOM    159  C4  U   B  45     -28.758  26.107   5.207  0.00  0.00    +0.000 A 
ATOM    160  O4  U   B  45     -28.714  27.185   4.613  0.00  0.00    +0.000 OA
ATOM    161  C5  U   B  45     -27.640  25.284   5.539  0.00  0.00    +0.000 A 
ATOM    162  C6  U   B  45     -27.834  24.127   6.192  0.00  0.00    +0.000 A 
ATOM    163  H   U   B  45     -30.768  26.154   5.396  0.00  0.00    +0.000 HD
ENDBRANCH 154 155
BRANCH 153 164
ATOM    164  O2' U   B  45     -30.660  20.457   7.205  0.00  0.00    +0.000 OA
ATOM    165  H   U   B  45     -30.143  20.124   7.955  0.00  0.00    +0.000 HD
ENDBRANCH 153 164
BRANCH 152 166
ATOM    166  O3' U   B  45     -28.825  19.247   5.503  0.00  0.00    +0.000 OA
BRANCH 166 167
ATOM    167  P   U   B  46     -28.875  18.884   3.955  0.00  0.00    +0.000 P 
ATOM    168  OP2 U   B  46     -27.741  19.554   3.266  0.00  0.00    +0.000 OA
BRANCH 167 169
ATOM    169  OP1 U   B  46     -29.052  17.418   3.818  0.00  0.00    +0.000 OA
ATOM    170  H   U   B  46     -29.084  17.183   2.878  0.00  0.00    +0.000 HD
ENDBRANCH 167 169
BRANCH 167 171
ATOM    171  O5' U   B  46     -30.218  19.593   3.486  0.00  0.00    +0.000 OA
BRANCH 171 172
ATOM    172  C5' U   B  46     -31.481  19.204   4.023  0.00  0.00    +0.000 C 
BRANCH 172 173
ATOM    173  C4' U   B  46     -32.566  20.160   3.612  0.00  0.00    +0.000 C 
ATOM    174  O4' U   B  46     -32.312  21.475   4.177  0.00  0.00    +0.000 OA
ATOM    175  C3' U   B  46     -32.683  20.419   2.123  0.00  0.00    +0.000 C 
ATOM    176  C2' U   B  46     -33.407  21.758   2.089  0.00  0.00    +0.000 C 
ATOM    177  C1' U   B  46     -32.771  22.474   3.287  0.00  0.00    +0.000 C 
BRANCH 177 178
ATOM    178  N1  U   B  46     -31.628  23.326   2.890  0.00  0.00    +0.000 N 
ATOM    179  C2  U   B  46     -31.914  24.577   2.371  0.00  0.00    +0.000 A 
ATOM    180  O2  U   B  46     -33.053  24.990   2.233  0.00  0.00    +0.000 OA
ATOM    181  N3  U   B  46     -30.820  25.331   2.020  0.00  0.00    +0.000 N 
ATOM    182  C4  U   B  46     -29.495  24.968   2.130  0.00  0.00    +0.000 A 
ATOM    183  O4  U   B  46     -28.621  25.757   1.768  0.00  0.00    +0.000 OA
ATOM    184  C5  U   B  46     -29.281  23.662   2.673  0.00  0.00    +0.000 A 
ATOM    185  C6  U   B  46     -30.328  22.905   3.024  0.00  0.00    +0.000 A 
ATOM    186  H   U   B  46     -31.002  26.225   1.651  0.00  0.00    +0.000 HD
ENDBRANCH 177 178
BRANCH 176 187
ATOM    187  O2' U   B  46     -34.792  21.614   2.326  0.00  0.00    +0.000 OA
ATOM    188  H   U   B  46     -34.930  21.164   3.174  0.00  0.00    +0.000 HD
ENDBRANCH 176 187
BRANCH 175 189
ATOM    189  O3' U   B  46     -33.369  19.376   1.441  0.00  0.00    +0.000 OA
BRANCH 189 190
ATOM    190  P   U   B  47     -32.994  19.005  -0.059  0.00  0.00    +0.000 P 
ATOM    191  OP1 U   B  47     -33.665  17.726  -0.400  0.00  0.00    +0.000 OA
BRANCH 190 192
ATOM    192  OP2 U   B  47     -31.524  19.132  -0.232  0.00  0.00    +0.000 OA
ATOM    193  H   U   B  47     -31.285  18.907  -1.145  0.00  0.00    +0.000 HD
ENDBRANCH 190 192
BRANCH 190 194
ATOM    194  O5' U   B  47     -33.694  20.172  -0.887  0.00  0.00    +0.000 OA
BRANCH 194 195
ATOM    195  C5' U   B  47     -35.105  20.359  -0.837  0.00  0.00    +0.000 C 
BRANCH 195 196
ATOM    196  C4' U   B  47     -35.514  21.632  -1.534  0.00  0.00    +0.000 C 
ATOM    197  O4' U   B  47     -35.003  22.786  -0.812  0.00  0.00    +0.000 OA
ATOM    198  C3' U   B  47     -34.981  21.818  -2.940  0.00  0.00    +0.000 C 
ATOM    199  C2' U   B  47     -35.100  23.327  -3.124  0.00  0.00    +0.000 C 
ATOM    200  C1' U   B  47     -34.725  23.832  -1.724  0.00  0.00    +0.000 C 
BRANCH 200 201
ATOM    201  N1  U   B  47     -33.294  24.196  -1.620  0.00  0.00    +0.000 N 
ATOM    202  C2  U   B  47     -32.929  25.457  -2.063  0.00  0.00    +0.000 A 
ATOM    203  O2  U   B  47     -33.729  26.253  -2.525  0.00  0.00    +0.000 OA
ATOM    204  N3  U   B  47     -31.590  25.753  -1.947  0.00  0.00    +0.000 N 
ATOM    205  C4  U   B  47     -30.600  24.935  -1.446  0.00  0.00    +0.000 A 
ATOM    206  O4  U   B  47     -29.439  25.347  -1.408  0.00  0.00    +0.000 OA
ATOM    207  C5  U   B  47     -31.055  23.651  -1.009  0.00  0.00    +0.000 A 
ATOM    208  C6  U   B  47     -32.353  23.334  -1.110  0.00  0.00    +0.000 A 
ATOM    209  H   U   B  47     -31.309  26.645  -2.255  0.00  0.00    +0.000 HD
ENDBRANCH 200 201
BRANCH 199 210
ATOM    210  O2' U   B  47     -36.427  23.717  -3.413  0.00  0.00    +0.000 OA
ATOM    211  H   U   B  47     -37.017  23.402  -2.710  0.00  0.00    +0.000 HD
ENDBRANCH 199 210
BRANCH 198 212
ATOM    212  O3' U   B  47     -35.700  21.062  -3.905  0.00  0.00    +0.000 OA
BRANCH 212 213
ATOM    213  P   A   B  48     -34.956  20.489  -5.205  0.00  0.00    +0.000 P 
ATOM    214  OP1 A   B  48     -35.870  19.531  -5.874  0.00  0.00    +0.000 OA
BRANCH 213 215
ATOM    215  OP2 A   B  48     -33.586  20.056  -4.827  0.00  0.00    +0.000 OA
ATOM    216  H   A   B  48     -33.130  19.708  -5.609  0.00  0.00    +0.000 HD
ENDBRANCH 213 215
BRANCH 213 217
ATOM    217  O5' A   B  48     -34.825  21.782  -6.129  0.00  0.00    +0.000 OA
BRANCH 217 218
ATOM    218  C5' A   B  48     -35.990  22.455  -6.601  0.00  0.00    +0.000 C 
BRANCH 218 219
ATOM    219  C4' A   B  48     -35.631  23.782  -7.224  0.00  0.00    +0.000 C 
ATOM    220  O4' A   B  48     -35.076  24.669  -6.216  0.00  0.00    +0.000 OA
ATOM    221  C3' A   B  48     -34.562  23.743  -8.299  0.00  0.00    +0.000 C 
ATOM    222  C2' A   B  48     -34.067  25.183  -8.302  0.00  0.00    +0.000 C 
ATOM    223  C1' A   B  48     -34.113  25.520  -6.808  0.00  0.00    +0.000 C 
BRANCH 223 224
ATOM    224  N9  A   B  48     -32.815  25.297  -6.147  0.00  0.00    +0.000 N 
ATOM    225  C8  A   B  48     -32.405  24.214  -5.411  0.00  0.00    +0.000 A 
ATOM    226  N7  A   B  48     -31.179  24.323  -4.951  0.00  0.00    +0.000 NA
ATOM    227  C5  A   B  48     -30.755  25.559  -5.415  0.00  0.00    +0.000 A 
ATOM    228  C6  A   B  48     -29.550  26.262  -5.273  0.00  0.00    +0.000 A 
ATOM    229  N6  A   B  48     -28.497  25.798  -4.587  0.00  0.00    +0.000 N 
ATOM    230  N1  A   B  48     -29.452  27.469  -5.863  0.00  0.00    +0.000 NA
ATOM    231  C2  A   B  48     -30.500  27.933  -6.549  0.00  0.00    +0.000 A 
ATOM    232  N3  A   B  48     -31.689  27.369  -6.753  0.00  0.00    +0.000 NA
ATOM    233  C4  A   B  48     -31.753  26.169  -6.154  0.00  0.00    +0.000 A 
ATOM    234  H   A   B  48     -27.676  26.337  -4.522  0.00  0.00    +0.000 HD
ATOM    235  H   A   B  48     -28.544  24.918  -4.148  0.00  0.00    +0.000 HD
ENDBRANCH 223 224
BRANCH 222 236
ATOM    236  O2' A   B  48     -34.951  26.042  -8.994  0.00  0.00    +0.000 OA
ATOM    237  H   A   B  48     -35.836  25.978  -8.603  0.00  0.00    +0.000 HD
ENDBRANCH 222 236
BRANCH 221 238
ATOM    238  O3' A   B  48     -35.066  23.314  -9.556  0.00  0.00    +0.000 OA
BRANCH 238 239
ATOM    239  P   U   B  49     -34.140  22.491 -10.571  0.00  0.00    +0.000 P 
ATOM    240  OP1 U   B  49     -35.008  21.940 -11.640  0.00  0.00    +0.000 OA
BRANCH 239 241
ATOM    241  OP2 U   B  49     -33.270  21.580  -9.781  0.00  0.00    +0.000 OA
ATOM    242  H   U   B  49     -32.702  21.073 -10.382  0.00  0.00    +0.000 HD
ENDBRANCH 239 241
BRANCH 239 243
ATOM    243  O5' U   B  49     -33.214  23.622 -11.211  0.00  0.00    +0.000 OA
BRANCH 243 244
ATOM    244  C5' U   B  49     -33.776  24.684 -11.971  0.00  0.00    +0.000 C 
BRANCH 244 245
ATOM    245  C4' U   B  49     -32.770  25.786 -12.205  0.00  0.00    +0.000 C 
ATOM    246  O4' U   B  49     -32.360  26.362 -10.932  0.00  0.00    +0.000 OA
ATOM    247  C3' U   B  49     -31.463  25.372 -12.850  0.00  0.00    +0.000 C 
ATOM    248  C2' U   B  49     -30.537  26.512 -12.446  0.00  0.00    +0.000 C 
ATOM    249  C1' U   B  49     -31.014  26.792 -11.016  0.00  0.00    +0.000 C 
BRANCH 249 250
ATOM    250  N1  U   B  49     -30.212  26.061 -10.008  0.00  0.00    +0.000 N 
ATOM    251  C2  U   B  49     -29.015  26.635  -9.611  0.00  0.00    +0.000 A 
ATOM    252  O2  U   B  49     -28.613  27.697 -10.052  0.00  0.00    +0.000 OA
ATOM    253  N3  U   B  49     -28.303  25.920  -8.675  0.00  0.00    +0.000 N 
ATOM    254  C4  U   B  49     -28.656  24.714  -8.110  0.00  0.00    +0.000 A 
ATOM    255  O4  U   B  49     -27.908  24.192  -7.281  0.00  0.00    +0.000 OA
ATOM    256  C5  U   B  49     -29.903  24.186  -8.572  0.00  0.00    +0.000 A 
ATOM    257  C6  U   B  49     -30.620  24.860  -9.483  0.00  0.00    +0.000 A 
ATOM    258  H   U   B  49     -27.450  26.312  -8.377  0.00  0.00    +0.000 HD
ENDBRANCH 249 250
BRANCH 248 259
ATOM    259  O2' U   B  49     -30.746  27.668 -13.233  0.00  0.00    +0.000 OA
ATOM    260  H   U   B  49     -31.676  27.937 -13.172  0.00  0.00    +0.000 HD
ENDBRANCH 248 259
BRANCH 247 261
ATOM    261  O3' U   B  49     -31.569  25.197 -14.255  0.00  0.00    +0.000 OA
BRANCH 261 262
ATOM    262  P   U   B  50     -30.654  24.108 -15.012  0.00  0.00    +0.000 P 
ATOM    263  OP1 U   B  50     -31.144  23.986 -16.403  0.00  0.00    +0.000 OA
BRANCH 262 264
ATOM    264  OP2 U   B  50     -30.560  22.897 -14.153  0.00  0.00    +0.000 OA
ATOM    265  H   U   B  50     -30.012  22.229 -14.594  0.00  0.00    +0.000 HD
ENDBRANCH 262 264
BRANCH 262 266
ATOM    266  O5' U   B  50     -29.218  24.799 -15.046  0.00  0.00    +0.000 OA
BRANCH 266 267
ATOM    267  C5' U   B  50     -29.002  26.006 -15.769  0.00  0.00    +0.000 C 
BRANCH 267 268
ATOM    268  C4' U   B  50     -27.683  26.645 -15.401  0.00  0.00    +0.000 C 
ATOM    269  O4' U   B  50     -27.657  26.937 -13.975  0.00  0.00    +0.000 OA
ATOM    270  C3' U   B  50     -26.444  25.801 -15.618  0.00  0.00    +0.000 C 
ATOM    271  C2' U   B  50     -25.441  26.465 -14.686  0.00  0.00    +0.000 C 
ATOM    272  C1' U   B  50     -26.333  26.815 -13.489  0.00  0.00    +0.000 C 
BRANCH 272 273
ATOM    273  N1  U   B  50     -26.295  25.772 -12.439  0.00  0.00    +0.000 N 
ATOM    274  C2  U   B  50     -25.222  25.789 -11.563  0.00  0.00    +0.000 A 
ATOM    275  O2  U   B  50     -24.330  26.615 -11.627  0.00  0.00    +0.000 OA
ATOM    276  N3  U   B  50     -25.231  24.800 -10.606  0.00  0.00    +0.000 N 
ATOM    277  C4  U   B  50     -26.182  23.817 -10.439  0.00  0.00    +0.000 A 
ATOM    278  O4  U   B  50     -26.049  22.996  -9.530  0.00  0.00    +0.000 OA
ATOM    279  C5  U   B  50     -27.258  23.867 -11.384  0.00  0.00    +0.000 A 
ATOM    280  C6  U   B  50     -27.277  24.817 -12.328  0.00  0.00    +0.000 A 
ATOM    281  H   U   B  50     -24.477  24.794  -9.973  0.00  0.00    +0.000 HD
ENDBRANCH 272 273
BRANCH 271 282
ATOM    282  O2' U   B  50     -24.920  27.661 -15.233  0.00  0.00    +0.000 OA
ATOM    283  H   U   B  50     -25.649  28.264 -15.446  0.00  0.00    +0.000 HD
ENDBRANCH 271 282
BRANCH 270 284
ATOM    284  O3' U   B  50     -26.021  25.777 -16.975  0.00  0.00    +0.000 OA
BRANCH 284 285
ATOM    285  P   U   B  51     -25.246  24.498 -17.568  0.00  0.00    +0.000 P 
ATOM    286  OP1 U   B  51     -25.138  24.666 -19.034  0.00  0.00    +0.000 OA
BRANCH 285 287
ATOM    287  OP2 U   B  51     -25.874  23.270 -17.010  0.00  0.00    +0.000 OA
ATOM    288  H   U   B  51     -26.766  23.167 -17.378  0.00  0.00    +0.000 HD
ENDBRANCH 285 287
BRANCH 285 289
ATOM    289  O5' U   B  51     -23.784  24.631 -16.940  0.00  0.00    +0.000 OA
BRANCH 289 290
ATOM    290  C5' U   B  51     -22.943  25.736 -17.258  0.00  0.00    +0.000 C 
BRANCH 290 291
ATOM    291  C4' U   B  51     -21.769  25.829 -16.312  0.00  0.00    +0.000 C 
ATOM    292  O4' U   B  51     -22.245  25.929 -14.940  0.00  0.00    +0.000 OA
ATOM    293  C3' U   B  51     -20.838  24.634 -16.288  0.00  0.00    +0.000 C 
ATOM    294  C2' U   B  51     -20.170  24.775 -14.926  0.00  0.00    +0.000 C 
ATOM    295  C1' U   B  51     -21.336  25.284 -14.070  0.00  0.00    +0.000 C 
BRANCH 295 296
ATOM    296  N1  U   B  51     -22.042  24.192 -13.361  0.00  0.00    +0.000 N 
ATOM    297  C2  U   B  51     -21.462  23.704 -12.202  0.00  0.00    +0.000 A 
ATOM    298  O2  U   B  51     -20.410  24.129 -11.756  0.00  0.00    +0.000 OA
ATOM    299  N3  U   B  51     -22.159  22.696 -11.579  0.00  0.00    +0.000 N 
ATOM    300  C4  U   B  51     -23.350  22.136 -11.988  0.00  0.00    +0.000 A 
ATOM    301  O4  U   B  51     -23.855  21.234 -11.320  0.00  0.00    +0.000 OA
ATOM    302  C5  U   B  51     -23.886  22.694 -13.193  0.00  0.00    +0.000 A 
ATOM    303  C6  U   B  51     -23.231  23.677 -13.822  0.00  0.00    +0.000 A 
ATOM    304  H   U   B  51     -21.765  22.335 -10.752  0.00  0.00    +0.000 HD
ENDBRANCH 295 296
BRANCH 294 305
ATOM    305  O2' U   B  51     -19.150  25.756 -14.936  0.00  0.00    +0.000 OA
ATOM    306  H   U   B  51     -19.519  26.603 -15.232  0.00  0.00    +0.000 HD
ENDBRANCH 294 305
BRANCH 293 307
ATOM    307  O3' U   B  51     -19.913  24.642 -17.367  0.00  0.00    +0.000 OA
BRANCH 307 308
ATOM    308  P   U   B  52     -19.324  23.261 -17.956  0.00  0.00    +0.000 P 
ATOM    309  OP1 U   B  52     -18.585  23.571 -19.200  0.00  0.00    +0.000 OA
BRANCH 308 310
ATOM    310  OP2 U   B  52     -20.425  22.259 -17.985  0.00  0.00    +0.000 OA
ATOM    311  H   U   B  52     -21.080  22.518 -18.652  0.00  0.00    +0.000 HD
ENDBRANCH 308 310
BRANCH 308 312
ATOM    312  O5' U   B  52     -18.269  22.801 -16.849  0.00  0.00    +0.000 OA
BRANCH 312 313
ATOM    313  C5' U   B  52     -17.107  23.577 -16.571  0.00  0.00    +0.000 C 
BRANCH 313 314
ATOM    314  C4' U   B  52     -16.411  23.093 -15.321  0.00  0.00    +0.000 C 
ATOM    315  O4' U   B  52     -17.307  23.208 -14.179  0.00  0.00    +0.000 OA
ATOM    316  C3' U   B  52     -15.999  21.636 -15.315  0.00  0.00    +0.000 C 
ATOM    317  C2' U   B  52     -15.886  21.339 -13.826  0.00  0.00    +0.000 C 
ATOM    318  C1' U   B  52     -17.058  22.156 -13.269  0.00  0.00    +0.000 C 
BRANCH 318 319
ATOM    319  N1  U   B  52     -18.294  21.351 -13.121  0.00  0.00    +0.000 N 
ATOM    320  C2  U   B  52     -18.403  20.559 -11.991  0.00  0.00    +0.000 A 
ATOM    321  O2  U   B  52     -17.537  20.499 -11.134  0.00  0.00    +0.000 OA
ATOM    322  N3  U   B  52     -19.570  19.835 -11.898  0.00  0.00    +0.000 N 
ATOM    323  C4  U   B  52     -20.613  19.822 -12.800  0.00  0.00    +0.000 A 
ATOM    324  O4  U   B  52     -21.596  19.119 -12.579  0.00  0.00    +0.000 OA
ATOM    325  C5  U   B  52     -20.422  20.667 -13.942  0.00  0.00    +0.000 A 
ATOM    326  C6  U   B  52     -19.297  21.382 -14.058  0.00  0.00    +0.000 A 
ATOM    327  H   U   B  52     -19.671  19.265 -11.102  0.00  0.00    +0.000 HD
ENDBRANCH 318 319
BRANCH 317 328
ATOM    328  O2' U   B  52     -14.680  21.840 -13.278  0.00  0.00    +0.000 OA
ATOM    329  H   U   B  52     -14.617  22.792 -13.451  0.00  0.00    +0.000 HD
ENDBRANCH 317 328
BRANCH 316 330
ATOM    330  O3' U   B  52     -14.789  21.410 -16.028  0.00  0.00    +0.000 OA
BRANCH 330 331
ATOM    331  P   A   B  53     -14.527  20.006 -16.781  0.00  0.00    +0.000 P 
ATOM    332  OP1 A   B  53     -13.280  20.129 -17.572  0.00  0.00    +0.000 OA
BRANCH 331 333
ATOM    333  OP2 A   B  53     -15.791  19.599 -17.449  0.00  0.00    +0.000 OA
ATOM    334  H   A   B  53     -15.978  20.204 -18.184  0.00  0.00    +0.000 HD
ENDBRANCH 331 333
BRANCH 331 335
ATOM    335  O5' A   B  53     -14.256  18.986 -15.580  0.00  0.00    +0.000 OA
BRANCH 335 336
ATOM    336  C5' A   B  53     -13.091  19.112 -14.770  0.00  0.00    +0.000 C 
BRANCH 336 337
ATOM    337  C4' A   B  53     -13.160  18.196 -13.569  0.00  0.00    +0.000 C 
ATOM    338  O4' A   B  53     -14.293  18.561 -12.731  0.00  0.00    +0.000 OA
ATOM    339  C3' A   B  53     -13.392  16.728 -13.869  0.00  0.00    +0.000 C 
ATOM    340  C2' A   B  53     -13.953  16.221 -12.548  0.00  0.00    +0.000 C 
ATOM    341  C1' A   B  53     -14.827  17.402 -12.123  0.00  0.00    +0.000 C 
BRANCH 341 342
ATOM    342  N9  A   B  53     -16.224  17.240 -12.555  0.00  0.00    +0.000 N 
ATOM    343  C8  A   B  53     -16.849  17.787 -13.646  0.00  0.00    +0.000 A 
ATOM    344  N7  A   B  53     -18.110  17.448 -13.751  0.00  0.00    +0.000 NA
ATOM    345  C5  A   B  53     -18.332  16.622 -12.658  0.00  0.00    +0.000 A 
ATOM    346  C6  A   B  53     -19.468  15.936 -12.200  0.00  0.00    +0.000 A 
ATOM    347  N1  A   B  53     -19.350  15.198 -11.077  0.00  0.00    +0.000 NA
ATOM    348  C2  A   B  53     -18.164  15.157 -10.459  0.00  0.00    +0.000 A 
ATOM    349  N3  A   B  53     -17.022  15.760 -10.790  0.00  0.00    +0.000 NA
ATOM    350  C4  A   B  53     -17.174  16.485 -11.912  0.00  0.00    +0.000 A 
BRANCH 346 351
ATOM    351  N6  A   B  53     -20.654  15.977 -12.821  0.00  0.00    +0.000 N 
ATOM    352  H   A   B  53     -20.762  16.510 -13.642  0.00  0.00    +0.000 HD
ATOM    353  H   A   B  53     -21.418  15.475 -12.456  0.00  0.00    +0.000 HD
ENDBRANCH 346 351
ENDBRANCH 341 342
BRANCH 340 354
ATOM    354  O2' A   B  53     -12.936  16.034 -11.580  0.00  0.00    +0.000 OA
ATOM    355  H   A   B  53     -12.449  16.864 -11.458  0.00  0.00    +0.000 HD
ENDBRANCH 340 354
BRANCH 339 356
ATOM    356  O3' A   B  53     -12.204  16.059 -14.270  0.00  0.00    +0.000 OA
BRANCH 356 357
ATOM    357  P   A   B  54     -12.272  14.802 -15.273  0.00  0.00    +0.000 P 
ATOM    358  OP2 A   B  54     -13.288  15.086 -16.316  0.00  0.00    +0.000 OA
BRANCH 357 359
ATOM    359  OP1 A   B  54     -10.885  14.456 -15.669  0.00  0.00    +0.000 OA
ATOM    360  H   A   B  54     -10.901  13.699 -16.275  0.00  0.00    +0.000 HD
ENDBRANCH 357 359
BRANCH 357 361
ATOM    361  O5' A   B  54     -12.835  13.621 -14.352  0.00  0.00    +0.000 OA
BRANCH 361 362
ATOM    362  C5' A   B  54     -12.067  13.123 -13.261  0.00  0.00    +0.000 C 
BRANCH 362 363
ATOM    363  C4' A   B  54     -12.909  12.266 -12.343  0.00  0.00    +0.000 C 
ATOM    364  O4' A   B  54     -14.042  13.032 -11.848  0.00  0.00    +0.000 OA
ATOM    365  C3' A   B  54     -13.550  11.043 -12.971  0.00  0.00    +0.000 C 
ATOM    366  C2' A   B  54     -14.691  10.759 -12.008  0.00  0.00    +0.000 C 
ATOM    367  C1' A   B  54     -15.153  12.175 -11.668  0.00  0.00    +0.000 C 
BRANCH 367 368
ATOM    368  N9  A   B  54     -16.251  12.617 -12.542  0.00  0.00    +0.000 N 
ATOM    369  C8  A   B  54     -16.189  13.425 -13.650  0.00  0.00    +0.000 A 
ATOM    370  N7  A   B  54     -17.355  13.631 -14.214  0.00  0.00    +0.000 NA
ATOM    371  C5  A   B  54     -18.242  12.911 -13.428  0.00  0.00    +0.000 A 
ATOM    372  C6  A   B  54     -19.632  12.719 -13.494  0.00  0.00    +0.000 A 
ATOM    373  N1  A   B  54     -20.207  11.942 -12.555  0.00  0.00    +0.000 NA
ATOM    374  C2  A   B  54     -19.432  11.395 -11.612  0.00  0.00    +0.000 A 
ATOM    375  N3  A   B  54     -18.114  11.502 -11.441  0.00  0.00    +0.000 NA
ATOM    376  C4  A   B  54     -17.573  12.281 -12.394  0.00  0.00    +0.000 A 
BRANCH 372 377
ATOM    377  N6  A   B  54     -20.405  13.266 -14.440  0.00  0.00    +0.000 N 
ATOM    378  H   A   B  54     -20.004  13.837 -15.135  0.00  0.00    +0.000 HD
ATOM    379  H   A   B  54     -21.375  13.098 -14.441  0.00  0.00    +0.000 HD
ENDBRANCH 372 377
ENDBRANCH 367 368
BRANCH 366 380
ATOM    380  O2' A   B  54     -14.239  10.128 -10.823  0.00  0.00    +0.000 OA
ATOM    381  H   A   B  54     -13.557  10.677 -10.404  0.00  0.00    +0.000 HD
ENDBRANCH 366 380
BRANCH 365 382
ATOM    382  O3' A   B  54     -12.645   9.954 -13.109  0.00  0.00    +0.000 OA
BRANCH 382 383
ATOM    383  P   A   B  55     -12.835   8.886 -14.297  0.00  0.00    +0.000 P 
ATOM    384  OP2 A   B  55     -13.226   9.609 -15.532  0.00  0.00    +0.000 OA
BRANCH 383 385
ATOM    385  OP1 A   B  55     -11.641   8.006 -14.308  0.00  0.00    +0.000 OA
ATOM    386  H   A   B  55     -11.729   7.350 -15.017  0.00  0.00    +0.000 HD
ENDBRANCH 383 385
BRANCH 383 387
ATOM    387  O5' A   B  55     -14.088   8.020 -13.820  0.00  0.00    +0.000 OA
BRANCH 387 388
ATOM    388  C5' A   B  55     -14.012   7.216 -12.645  0.00  0.00    +0.000 C 
BRANCH 388 389
ATOM    389  C4' A   B  55     -15.383   6.753 -12.212  0.00  0.00    +0.000 C 
ATOM    390  O4' A   B  55     -16.254   7.900 -12.008  0.00  0.00    +0.000 OA
ATOM    391  C3' A   B  55     -16.142   5.894 -13.206  0.00  0.00    +0.000 C 
ATOM    392  C2' A   B  55     -17.580   6.079 -12.744  0.00  0.00    +0.000 C 
ATOM    393  C1' A   B  55     -17.583   7.557 -12.348  0.00  0.00    +0.000 C 
BRANCH 393 394
ATOM    394  N9  A   B  55     -18.039   8.422 -13.447  0.00  0.00    +0.000 N 
ATOM    395  C8  A   B  55     -17.282   9.188 -14.296  0.00  0.00    +0.000 A 
ATOM    396  N7  A   B  55     -17.993   9.853 -15.175  0.00  0.00    +0.000 NA
ATOM    397  C5  A   B  55     -19.302   9.499 -14.885  0.00  0.00    +0.000 A 
ATOM    398  C6  A   B  55     -20.531   9.865 -15.456  0.00  0.00    +0.000 A 
ATOM    399  N1  A   B  55     -21.652   9.334 -14.933  0.00  0.00    +0.000 NA
ATOM    400  C2  A   B  55     -21.542   8.490 -13.903  0.00  0.00    +0.000 A 
ATOM    401  N3  A   B  55     -20.443   8.071 -13.277  0.00  0.00    +0.000 NA
ATOM    402  C4  A   B  55     -19.345   8.619 -13.823  0.00  0.00    +0.000 A 
BRANCH 398 403
ATOM    403  N6  A   B  55     -20.641  10.711 -16.490  0.00  0.00    +0.000 N 
ATOM    404  H   A   B  55     -21.529  10.933 -16.852  0.00  0.00    +0.000 HD
ATOM    405  H   A   B  55     -19.834  11.110 -16.888  0.00  0.00    +0.000 HD
ENDBRANCH 398 403
ENDBRANCH 393 394
BRANCH 392 406
ATOM    406  O2' A   B  55     -17.876   5.297 -11.600  0.00  0.00    +0.000 OA
ATOM    407  H   A   B  55     -17.253   5.516 -10.889  0.00  0.00    +0.000 HD
ENDBRANCH 392 406
BRANCH 391 408
ATOM    408  O3' A   B  55     -15.717   4.536 -13.193  0.00  0.00    +0.000 OA
BRANCH 408 409
ATOM    409  P   A   B  56     -15.821   3.634 -14.525  0.00  0.00    +0.000 P 
ATOM    410  OP2 A   B  56     -15.434   4.461 -15.691  0.00  0.00    +0.000 OA
BRANCH 409 411
ATOM    411  OP1 A   B  56     -15.116   2.358 -14.262  0.00  0.00    +0.000 OA
ATOM    412  H   A   B  56     -15.163   1.794 -15.050  0.00  0.00    +0.000 HD
ENDBRANCH 409 411
BRANCH 409 413
ATOM    413  O5' A   B  56     -17.381   3.327 -14.641  0.00  0.00    +0.000 OA
BRANCH 413 414
ATOM    414  C5' A   B  56     -18.057   2.585 -13.628  0.00  0.00    +0.000 C 
BRANCH 414 415
ATOM    415  C4' A   B  56     -19.554   2.664 -13.807  0.00  0.00    +0.000 C 
ATOM    416  O4' A   B  56     -19.981   4.054 -13.782  0.00  0.00    +0.000 OA
ATOM    417  C3' A   B  56     -20.089   2.137 -15.123  0.00  0.00    +0.000 C 
ATOM    418  C2' A   B  56     -21.418   2.869 -15.253  0.00  0.00    +0.000 C 
ATOM    419  C1' A   B  56     -21.078   4.238 -14.656  0.00  0.00    +0.000 C 
BRANCH 419 420
ATOM    420  N9  A   B  56     -20.710   5.235 -15.671  0.00  0.00    +0.000 N 
ATOM    421  C8  A   B  56     -19.455   5.643 -16.040  0.00  0.00    +0.000 A 
ATOM    422  N7  A   B  56     -19.456   6.565 -16.975  0.00  0.00    +0.000 NA
ATOM    423  C5  A   B  56     -20.800   6.777 -17.238  0.00  0.00    +0.000 A 
ATOM    424  C6  A   B  56     -21.468   7.636 -18.126  0.00  0.00    +0.000 A 
ATOM    425  N1  A   B  56     -22.813   7.601 -18.141  0.00  0.00    +0.000 NA
ATOM    426  C2  A   B  56     -23.443   6.759 -17.314  0.00  0.00    +0.000 A 
ATOM    427  N3  A   B  56     -22.928   5.907 -16.429  0.00  0.00    +0.000 NA
ATOM    428  C4  A   B  56     -21.584   5.965 -16.442  0.00  0.00    +0.000 A 
BRANCH 424 429
ATOM    429  N6  A   B  56     -20.834   8.477 -18.955  0.00  0.00    +0.000 N 
ATOM    430  H   A   B  56     -21.352   9.058 -19.558  0.00  0.00    +0.000 HD
ATOM    431  H   A   B  56     -19.850   8.514 -18.961  0.00  0.00    +0.000 HD
ENDBRANCH 424 429
ENDBRANCH 419 420
BRANCH 418 432
ATOM    432  O2' A   B  56     -22.436   2.266 -14.470  0.00  0.00    +0.000 OA
ATOM    433  H   A   B  56     -22.152   2.230 -13.543  0.00  0.00    +0.000 HD
ENDBRANCH 418 432
BRANCH 417 434
ATOM    434  O3' A   B  56     -20.228   0.718 -15.107  0.00  0.00    +0.000 OA
BRANCH 434 435
ATOM    435  P   A   B  57     -19.929  -0.166 -16.427  0.00  0.00    +0.000 P 
ATOM    436  OP2 A   B  57     -18.765   0.433 -17.130  0.00  0.00    +0.000 OA
BRANCH 435 437
ATOM    437  OP1 A   B  57     -19.890  -1.590 -16.022  0.00  0.00    +0.000 OA
ATOM    438  H   A   B  57     -19.712  -2.142 -16.799  0.00  0.00    +0.000 HD
ENDBRANCH 435 437
BRANCH 435 439
ATOM    439  O5' A   B  57     -21.223   0.064 -17.331  0.00  0.00    +0.000 OA
BRANCH 439 440
ATOM    440  C5' A   B  57     -22.504  -0.392 -16.900  0.00  0.00    +0.000 C 
BRANCH 440 441
ATOM    441  C4' A   B  57     -23.597   0.150 -17.796  0.00  0.00    +0.000 C 
ATOM    442  O4' A   B  57     -23.573   1.606 -17.746  0.00  0.00    +0.000 OA
ATOM    443  C3' A   B  57     -23.467  -0.185 -19.265  0.00  0.00    +0.000 C 
ATOM    444  C2' A   B  57     -24.200   0.964 -19.949  0.00  0.00    +0.000 C 
ATOM    445  C1' A   B  57     -23.944   2.141 -18.998  0.00  0.00    +0.000 C 
BRANCH 445 446
ATOM    446  N9  A   B  57     -22.883   3.051 -19.451  0.00  0.00    +0.000 N 
ATOM    447  C8  A   B  57     -21.535   2.968 -19.220  0.00  0.00    +0.000 A 
ATOM    448  N7  A   B  57     -20.850   3.951 -19.760  0.00  0.00    +0.000 NA
ATOM    449  C5  A   B  57     -21.814   4.731 -20.384  0.00  0.00    +0.000 A 
ATOM    450  C6  A   B  57     -21.738   5.920 -21.130  0.00  0.00    +0.000 A 
ATOM    451  N1  A   B  57     -22.886   6.434 -21.608  0.00  0.00    +0.000 NA
ATOM    452  C2  A   B  57     -24.032   5.798 -21.352  0.00  0.00    +0.000 A 
ATOM    453  N3  A   B  57     -24.235   4.677 -20.662  0.00  0.00    +0.000 NA
ATOM    454  C4  A   B  57     -23.071   4.186 -20.201  0.00  0.00    +0.000 A 
BRANCH 450 455
ATOM    455  N6  A   B  57     -20.586   6.557 -21.391  0.00  0.00    +0.000 N 
ATOM    456  H   A   B  57     -20.592   7.388 -21.919  0.00  0.00    +0.000 HD
ATOM    457  H   A   B  57     -19.735   6.194 -21.054  0.00  0.00    +0.000 HD
ENDBRANCH 450 455
ENDBRANCH 445 446
BRANCH 444 458
ATOM    458  O2' A   B  57     -25.602   0.729 -20.022  0.00  0.00    +0.000 OA
ATOM    459  H   A   B  57     -25.953   0.586 -19.129  0.00  0.00    +0.000 HD
ENDBRANCH 444 458
BRANCH 443 460
ATOM    460  O3' A   B  57     -24.053  -1.454 -19.577  0.00  0.00    +0.000 OA
BRANCH 460 461
ATOM    461  P   C   B  58     -23.266  -2.842 -19.379  0.00  0.00    +0.000 P 
ATOM    462  OP1 C   B  58     -24.251  -3.814 -18.847  0.00  0.00    +0.000 OA
BRANCH 461 463
ATOM    463  OP2 C   B  58     -22.011  -2.578 -18.624  0.00  0.00    +0.000 OA
ATOM    464  H   C   B  58     -21.478  -1.923 -19.102  0.00  0.00    +0.000 HD
ENDBRANCH 461 463
BRANCH 461 465
ATOM    465  O5' C   B  58     -22.862  -3.303 -20.843  0.00  0.00    +0.000 OA
BRANCH 465 466
ATOM    466  C5' C   B  58     -23.813  -3.897 -21.725  0.00  0.00    +0.000 C 
BRANCH 466 467
ATOM    467  C4' C   B  58     -23.244  -4.005 -23.117  0.00  0.00    +0.000 C 
ATOM    468  O4' C   B  58     -22.971  -2.673 -23.623  0.00  0.00    +0.000 OA
ATOM    469  C3' C   B  58     -21.919  -4.735 -23.225  0.00  0.00    +0.000 C 
ATOM    470  C2' C   B  58     -21.303  -4.133 -24.480  0.00  0.00    +0.000 C 
ATOM    471  C1' C   B  58     -21.783  -2.679 -24.389  0.00  0.00    +0.000 C 
BRANCH 471 472
ATOM    472  N1  C   B  58     -20.813  -1.775 -23.732  0.00  0.00    +0.000 N 
ATOM    473  C2  C   B  58     -19.757  -1.252 -24.483  0.00  0.00    +0.000 A 
ATOM    474  O2  C   B  58     -19.654  -1.565 -25.684  0.00  0.00    +0.000 OA
ATOM    475  N3  C   B  58     -18.869  -0.415 -23.893  0.00  0.00    +0.000 NA
ATOM    476  C4  C   B  58     -19.005  -0.097 -22.606  0.00  0.00    +0.000 A 
ATOM    477  N4  C   B  58     -18.106   0.730 -22.063  0.00  0.00    +0.000 N 
ATOM    478  C5  C   B  58     -20.069  -0.613 -21.818  0.00  0.00    +0.000 A 
ATOM    479  C6  C   B  58     -20.938  -1.439 -22.413  0.00  0.00    +0.000 A 
ATOM    480  H   C   B  58     -17.370   1.086 -22.612  0.00  0.00    +0.000 HD
ATOM    481  H   C   B  58     -18.180   0.983 -21.115  0.00  0.00    +0.000 HD
ENDBRANCH 471 472
BRANCH 470 482
ATOM    482  O2' C   B  58     -21.828  -4.720 -25.658  0.00  0.00    +0.000 OA
ATOM    483  H   C   B  58     -22.793  -4.626 -25.664  0.00  0.00    +0.000 HD
ENDBRANCH 470 482
BRANCH 469 484
ATOM    484  O3' C   B  58     -22.092  -6.149 -23.307  0.00  0.00    +0.000 OA
BRANCH 484 485
ATOM    485  P   A   B  59     -21.157  -7.181 -22.467  0.00  0.00    +0.000 P 
ATOM    486  OP1 A   B  59     -21.789  -8.522 -22.462  0.00  0.00    +0.000 OA
BRANCH 485 487
ATOM    487  OP2 A   B  59     -20.820  -6.528 -21.179  0.00  0.00    +0.000 OA
ATOM    488  H   A   B  59     -20.416  -5.663 -21.351  0.00  0.00    +0.000 HD
ENDBRANCH 485 487
BRANCH 485 489
ATOM    489  O5' A   B  59     -19.825  -7.267 -23.340  0.00  0.00    +0.000 OA
BRANCH 489 490
ATOM    490  C5' A   B  59     -19.816  -7.938 -24.597  0.00  0.00    +0.000 C 
BRANCH 490 491
ATOM    491  C4' A   B  59     -18.590  -7.568 -25.398  0.00  0.00    +0.000 C 
ATOM    492  O4' A   B  59     -18.562  -6.131 -25.601  0.00  0.00    +0.000 OA
ATOM    493  C3' A   B  59     -17.254  -7.875 -24.749  0.00  0.00    +0.000 C 
ATOM    494  C2' A   B  59     -16.324  -6.894 -25.444  0.00  0.00    +0.000 C 
ATOM    495  C1' A   B  59     -17.228  -5.670 -25.578  0.00  0.00    +0.000 C 
BRANCH 495 496
ATOM    496  N9  A   B  59     -17.074  -4.735 -24.455  0.00  0.00    +0.000 N 
ATOM    497  C8  A   B  59     -17.853  -4.628 -23.334  0.00  0.00    +0.000 A 
ATOM    498  N7  A   B  59     -17.461  -3.687 -22.508  0.00  0.00    +0.000 NA
ATOM    499  C5  A   B  59     -16.351  -3.139 -23.129  0.00  0.00    +0.000 A 
ATOM    500  C6  A   B  59     -15.480  -2.097 -22.768  0.00  0.00    +0.000 A 
ATOM    501  N6  A   B  59     -15.598  -1.396 -21.630  0.00  0.00    +0.000 N 
ATOM    502  N1  A   B  59     -14.474  -1.800 -23.610  0.00  0.00    +0.000 NA
ATOM    503  C2  A   B  59     -14.354  -2.502 -24.742  0.00  0.00    +0.000 A 
ATOM    504  N3  A   B  59     -15.111  -3.501 -25.194  0.00  0.00    +0.000 NA
ATOM    505  C4  A   B  59     -16.102  -3.774 -24.330  0.00  0.00    +0.000 A 
ATOM    506  H   A   B  59     -14.959  -0.675 -21.427  0.00  0.00    +0.000 HD
ATOM    507  H   A   B  59     -16.324  -1.602 -20.998  0.00  0.00    +0.000 HD
ENDBRANCH 495 496
BRANCH 494 508
ATOM    508  O2' A   B  59     -15.951  -7.335 -26.740  0.00  0.00    +0.000 OA
ATOM    509  H   A   B  59     -16.748  -7.490 -27.271  0.00  0.00    +0.000 HD
ENDBRANCH 494 508
BRANCH 493 510
ATOM    510  O3' A   B  59     -16.863  -9.233 -24.919  0.00  0.00    +0.000 OA
BRANCH 510 511
ATOM    511  P   G   B  60     -15.999 -10.004 -23.790  0.00  0.00    +0.000 P 
ATOM    512  OP1 G   B  60     -15.902 -11.432 -24.168  0.00  0.00    +0.000 OA
BRANCH 511 513
ATOM    513  OP2 G   B  60     -16.536  -9.633 -22.454  0.00  0.00    +0.000 OA
ATOM    514  H   G   B  60     -17.420 -10.017 -22.343  0.00  0.00    +0.000 HD
ENDBRANCH 511 513
BRANCH 511 515
ATOM    515  O5' G   B  60     -14.547  -9.356 -23.939  0.00  0.00    +0.000 OA
BRANCH 515 516
ATOM    516  C5' G   B  60     -13.740  -9.613 -25.084  0.00  0.00    +0.000 C 
BRANCH 516 517
ATOM    517  C4' G   B  60     -12.610  -8.613 -25.198  0.00  0.00    +0.000 C 
ATOM    518  O4' G   B  60     -13.148  -7.266 -25.163  0.00  0.00    +0.000 OA
ATOM    519  C3' G   B  60     -11.588  -8.629 -24.079  0.00  0.00    +0.000 C 
ATOM    520  C2' G   B  60     -11.005  -7.228 -24.162  0.00  0.00    +0.000 C 
ATOM    521  C1' G   B  60     -12.246  -6.405 -24.501  0.00  0.00    +0.000 C 
BRANCH 521 522
ATOM    522  N9  G   B  60     -12.898  -5.864 -23.297  0.00  0.00    +0.000 N 
ATOM    523  C8  G   B  60     -14.006  -6.358 -22.652  0.00  0.00    +0.000 A 
ATOM    524  N7  G   B  60     -14.344  -5.656 -21.607  0.00  0.00    +0.000 NA
ATOM    525  C5  G   B  60     -13.406  -4.635 -21.557  0.00  0.00    +0.000 A 
ATOM    526  C6  G   B  60     -13.259  -3.564 -20.643  0.00  0.00    +0.000 A 
ATOM    527  O6  G   B  60     -13.960  -3.295 -19.654  0.00  0.00    +0.000 OA
ATOM    528  N1  G   B  60     -12.173  -2.762 -20.956  0.00  0.00    +0.000 NA
ATOM    529  C2  G   B  60     -11.333  -2.963 -22.022  0.00  0.00    +0.000 A 
ATOM    530  N2  G   B  60     -10.334  -2.078 -22.165  0.00  0.00    +0.000 N 
ATOM    531  N3  G   B  60     -11.454  -3.957 -22.885  0.00  0.00    +0.000 N 
ATOM    532  C4  G   B  60     -12.507  -4.751 -22.594  0.00  0.00    +0.000 A 
ATOM    533  H   G   B  60      -9.698  -2.170 -22.911  0.00  0.00    +0.000 HD
ATOM    534  H   G   B  60     -10.237  -1.337 -21.524  0.00  0.00    +0.000 HD
ATOM    535  H   G   B  60     -10.849  -4.101 -23.648  0.00  0.00    +0.000 HD
ENDBRANCH 521 522
BRANCH 520 536
ATOM    536  O2' G   B  60     -10.066  -7.100 -25.222  0.00  0.00    +0.000 OA
ATOM    537  H   G   B  60     -10.488  -7.348 -26.059  0.00  0.00    +0.000 HD
ENDBRANCH 520 536
BRANCH 519 538
ATOM    538  O3' G   B  60     -10.611  -9.653 -24.242  0.00  0.00    +0.000 OA
BRANCH 538 539
ATOM    539  P   A   B  61      -9.907 -10.337 -22.964  0.00  0.00    +0.000 P 
ATOM    540  OP1 A   B  61      -9.057 -11.454 -23.438  0.00  0.00    +0.000 OA
BRANCH 539 541
ATOM    541  OP2 A   B  61     -10.954 -10.590 -21.940  0.00  0.00    +0.000 OA
ATOM    542  H   A   B  61     -11.552 -11.286 -22.254  0.00  0.00    +0.000 HD
ENDBRANCH 539 541
BRANCH 539 543
ATOM    543  O5' A   B  61      -8.943  -9.186 -22.409  0.00  0.00    +0.000 OA
BRANCH 543 544
ATOM    544  C5' A   B  61      -7.809  -8.759 -23.157  0.00  0.00    +0.000 C 
BRANCH 544 545
ATOM    545  C4' A   B  61      -7.254  -7.459 -22.615  0.00  0.00    +0.000 C 
ATOM    546  O4' A   B  61      -8.298  -6.449 -22.595  0.00  0.00    +0.000 OA
ATOM    547  C3' A   B  61      -6.755  -7.492 -21.183  0.00  0.00    +0.000 C 
ATOM    548  C2' A   B  61      -6.830  -6.027 -20.788  0.00  0.00    +0.000 C 
ATOM    549  C1' A   B  61      -8.122  -5.601 -21.476  0.00  0.00    +0.000 C 
BRANCH 549 550
ATOM    550  N9  A   B  61      -9.288  -5.739 -20.589  0.00  0.00    +0.000 N 
ATOM    551  C8  A   B  61     -10.218  -6.745 -20.571  0.00  0.00    +0.000 A 
ATOM    552  N7  A   B  61     -11.143  -6.591 -19.655  0.00  0.00    +0.000 NA
ATOM    553  C5  A   B  61     -10.798  -5.401 -19.030  0.00  0.00    +0.000 A 
ATOM    554  C6  A   B  61     -11.381  -4.683 -17.974  0.00  0.00    +0.000 A 
ATOM    555  N6  A   B  61     -12.483  -5.083 -17.329  0.00  0.00    +0.000 N 
ATOM    556  N1  A   B  61     -10.788  -3.534 -17.591  0.00  0.00    +0.000 NA
ATOM    557  C2  A   B  61      -9.684  -3.138 -18.236  0.00  0.00    +0.000 A 
ATOM    558  N3  A   B  61      -9.044  -3.725 -19.242  0.00  0.00    +0.000 NA
ATOM    559  C4  A   B  61      -9.659  -4.867 -19.596  0.00  0.00    +0.000 A 
ATOM    560  H   A   B  61     -12.932  -5.919 -17.593  0.00  0.00    +0.000 HD
ATOM    561  H   A   B  61     -12.845  -4.542 -16.591  0.00  0.00    +0.000 HD
ENDBRANCH 549 550
BRANCH 548 562
ATOM    562  O2' A   B  61      -5.754  -5.273 -21.324  0.00  0.00    +0.000 OA
ATOM    563  H   A   B  61      -5.739  -5.371 -22.289  0.00  0.00    +0.000 HD
ENDBRANCH 548 562
BRANCH 547 564
ATOM    564  O3' A   B  61      -5.448  -8.039 -21.068  0.00  0.00    +0.000 OA
BRANCH 564 565
ATOM    565  P   C   B  62      -5.020  -8.871 -19.769  0.00  0.00    +0.000 P 
ATOM    566  OP1 C   B  62      -3.687  -9.472 -20.011  0.00  0.00    +0.000 OA
BRANCH 565 567
ATOM    567  OP2 C   B  62      -6.160  -9.741 -19.380  0.00  0.00    +0.000 OA
ATOM    568  H   C   B  62      -6.277 -10.437 -20.045  0.00  0.00    +0.000 HD
ENDBRANCH 565 567
BRANCH 565 569
ATOM    569  O5' C   B  62      -4.859  -7.740 -18.652  0.00  0.00    +0.000 OA
BRANCH 569 570
ATOM    570  C5' C   B  62      -3.884  -6.714 -18.776  0.00  0.00    +0.000 C 
BRANCH 570 571
ATOM    571  C4' C   B  62      -4.166  -5.567 -17.832  0.00  0.00    +0.000 C 
ATOM    572  O4' C   B  62      -5.510  -5.062 -18.054  0.00  0.00    +0.000 OA
ATOM    573  C3' C   B  62      -4.143  -5.896 -16.354  0.00  0.00    +0.000 C 
ATOM    574  C2' C   B  62      -4.977  -4.766 -15.758  0.00  0.00    +0.000 C 
ATOM    575  C1' C   B  62      -6.056  -4.598 -16.830  0.00  0.00    +0.000 C 
BRANCH 575 576
ATOM    576  N1  C   B  62      -7.282  -5.371 -16.525  0.00  0.00    +0.000 N 
ATOM    577  C2  C   B  62      -8.195  -4.846 -15.604  0.00  0.00    +0.000 A 
ATOM    578  O2  C   B  62      -7.949  -3.751 -15.070  0.00  0.00    +0.000 OA
ATOM    579  N3  C   B  62      -9.321  -5.541 -15.312  0.00  0.00    +0.000 NA
ATOM    580  C4  C   B  62      -9.555  -6.714 -15.905  0.00  0.00    +0.000 A 
ATOM    581  N4  C   B  62     -10.678  -7.363 -15.584  0.00  0.00    +0.000 N 
ATOM    582  C5  C   B  62      -8.646  -7.268 -16.853  0.00  0.00    +0.000 A 
ATOM    583  C6  C   B  62      -7.539  -6.571 -17.131  0.00  0.00    +0.000 A 
ATOM    584  H   C   B  62     -10.882  -8.231 -16.002  0.00  0.00    +0.000 HD
ATOM    585  H   C   B  62     -11.301  -6.974 -14.929  0.00  0.00    +0.000 HD
ENDBRANCH 575 576
BRANCH 574 586
ATOM    586  O2' C   B  62      -4.241  -3.566 -15.651  0.00  0.00    +0.000 OA
ATOM    587  H   C   B  62      -3.893  -3.321 -16.523  0.00  0.00    +0.000 HD
ENDBRANCH 574 586
BRANCH 573 588
ATOM    588  O3' C   B  62      -2.820  -5.952 -15.829  0.00  0.00    +0.000 OA
BRANCH 588 589
ATOM    589  P   U   B  63      -2.436  -6.984 -14.664  0.00  0.00    +0.000 P 
ATOM    590  OP2 U   B  63      -3.140  -8.268 -14.918  0.00  0.00    +0.000 OA
BRANCH 589 591
ATOM    591  OP1 U   B  63      -0.965  -6.979 -14.500  0.00  0.00    +0.000 OA
ATOM    592  H   U   B  63      -0.551  -7.380 -15.280  0.00  0.00    +0.000 HD
ENDBRANCH 589 591
BRANCH 589 593
ATOM    593  O5' U   B  63      -3.077  -6.317 -13.362  0.00  0.00    +0.000 OA
BRANCH 593 594
ATOM    594  C5' U   B  63      -2.631  -5.057 -12.884  0.00  0.00    +0.000 C 
BRANCH 594 595
ATOM    595  C4' U   B  63      -3.592  -4.473 -11.879  0.00  0.00    +0.000 C 
ATOM    596  O4' U   B  63      -4.900  -4.309 -12.489  0.00  0.00    +0.000 OA
ATOM    597  C3' U   B  63      -3.863  -5.317 -10.650  0.00  0.00    +0.000 C 
ATOM    598  C2' U   B  63      -5.213  -4.770 -10.185  0.00  0.00    +0.000 C 
ATOM    599  C1' U   B  63      -5.910  -4.520 -11.520  0.00  0.00    +0.000 C 
BRANCH 599 600
ATOM    600  N1  U   B  63      -6.749  -5.667 -11.942  0.00  0.00    +0.000 N 
ATOM    601  C2  U   B  63      -8.009  -5.786 -11.376  0.00  0.00    +0.000 A 
ATOM    602  O2  U   B  63      -8.443  -4.996 -10.558  0.00  0.00    +0.000 OA
ATOM    603  N3  U   B  63      -8.743  -6.867 -11.805  0.00  0.00    +0.000 N 
ATOM    604  C4  U   B  63      -8.357  -7.821 -12.721  0.00  0.00    +0.000 A 
ATOM    605  O4  U   B  63      -9.130  -8.736 -13.005  0.00  0.00    +0.000 OA
ATOM    606  C5  U   B  63      -7.048  -7.626 -13.264  0.00  0.00    +0.000 A 
ATOM    607  C6  U   B  63      -6.310  -6.582 -12.865  0.00  0.00    +0.000 A 
ATOM    608  H   U   B  63      -9.641  -6.970 -11.415  0.00  0.00    +0.000 HD
ENDBRANCH 599 600
BRANCH 598 609
ATOM    609  O2' U   B  63      -5.078  -3.548  -9.499  0.00  0.00    +0.000 OA
ATOM    610  H   U   B  63      -4.620  -2.908 -10.066  0.00  0.00    +0.000 HD
ENDBRANCH 598 609
BRANCH 597 611
ATOM    611  O3' U   B  63      -2.840  -5.207  -9.668  0.00  0.00    +0.000 OA
BRANCH 611 612
ATOM    612  P   A   B  64      -2.427  -6.457  -8.762  0.00  0.00    +0.000 P 
ATOM    613  OP2 A   B  64      -2.354  -7.665  -9.626  0.00  0.00    +0.000 OA
BRANCH 612 614
ATOM    614  OP1 A   B  64      -1.257  -6.077  -7.931  0.00  0.00    +0.000 OA
ATOM    615  H   A   B  64      -0.477  -5.972  -8.499  0.00  0.00    +0.000 HD
ENDBRANCH 612 614
BRANCH 612 616
ATOM    616  O5' A   B  64      -3.680  -6.618  -7.795  0.00  0.00    +0.000 OA
BRANCH 616 617
ATOM    617  C5' A   B  64      -4.028  -5.607  -6.860  0.00  0.00    +0.000 C 
BRANCH 617 618
ATOM    618  C4' A   B  64      -5.415  -5.825  -6.305  0.00  0.00    +0.000 C 
ATOM    619  O4' A   B  64      -6.382  -5.811  -7.386  0.00  0.00    +0.000 OA
ATOM    620  C3' A   B  64      -5.650  -7.157  -5.615  0.00  0.00    +0.000 C 
ATOM    621  C2' A   B  64      -7.161  -7.301  -5.718  0.00  0.00    +0.000 C 
ATOM    622  C1' A   B  64      -7.422  -6.730  -7.108  0.00  0.00    +0.000 C 
BRANCH 622 623
ATOM    623  N9  A   B  64      -7.414  -7.778  -8.142  0.00  0.00    +0.000 N 
ATOM    624  C8  A   B  64      -6.422  -8.071  -9.041  0.00  0.00    +0.000 A 
ATOM    625  N7  A   B  64      -6.711  -9.065  -9.845  0.00  0.00    +0.000 NA
ATOM    626  C5  A   B  64      -7.981  -9.457  -9.449  0.00  0.00    +0.000 A 
ATOM    627  C6  A   B  64      -8.848 -10.463  -9.906  0.00  0.00    +0.000 A 
ATOM    628  N1  A   B  64     -10.042 -10.586  -9.293  0.00  0.00    +0.000 NA
ATOM    629  C2  A   B  64     -10.337  -9.753  -8.292  0.00  0.00    +0.000 A 
ATOM    630  N3  A   B  64      -9.608  -8.767  -7.773  0.00  0.00    +0.000 NA
ATOM    631  C4  A   B  64      -8.426  -8.672  -8.402  0.00  0.00    +0.000 A 
BRANCH 627 632
ATOM    632  N6  A   B  64      -8.548 -11.296 -10.907  0.00  0.00    +0.000 N 
ATOM    633  H   A   B  64      -7.681 -11.221 -11.367  0.00  0.00    +0.000 HD
ATOM    634  H   A   B  64      -9.194 -11.985 -11.185  0.00  0.00    +0.000 HD
ENDBRANCH 627 632
ENDBRANCH 622 623
BRANCH 621 635
ATOM    635  O2' A   B  64      -7.837  -6.504  -4.762  0.00  0.00    +0.000 OA
ATOM    636  H   A   B  64      -7.569  -5.578  -4.866  0.00  0.00    +0.000 HD
ENDBRANCH 621 635
BRANCH 620 637
ATOM    637  O3' A   B  64      -5.168  -7.175  -4.280  0.00  0.00    +0.000 OA
BRANCH 637 638
ATOM    638  P   C   B  65      -4.551  -8.500  -3.638  0.00  0.00    +0.000 P 
ATOM    639  OP2 C   B  65      -3.789  -9.235  -4.681  0.00  0.00    +0.000 OA
BRANCH 638 640
ATOM    640  OP1 C   B  65      -3.887  -8.134  -2.362  0.00  0.00    +0.000 OA
ATOM    641  H   C   B  65      -3.089  -7.615  -2.550  0.00  0.00    +0.000 HD
ENDBRANCH 638 640
BRANCH 638 642
ATOM    642  O5' C   B  65      -5.852  -9.349  -3.289  0.00  0.00    +0.000 OA
BRANCH 642 643
ATOM    643  C5' C   B  65      -6.845  -8.856  -2.400  0.00  0.00    +0.000 C 
BRANCH 643 644
ATOM    644  C4' C   B  65      -8.130  -9.633  -2.530  0.00  0.00    +0.000 C 
ATOM    645  O4' C   B  65      -8.610  -9.561  -3.902  0.00  0.00    +0.000 OA
ATOM    646  C3' C   B  65      -8.040 -11.119  -2.247  0.00  0.00    +0.000 C 
ATOM    647  C2' C   B  65      -9.265 -11.653  -2.987  0.00  0.00    +0.000 C 
ATOM    648  C1' C   B  65      -9.274 -10.764  -4.236  0.00  0.00    +0.000 C 
BRANCH 648 649
ATOM    649  N1  C   B  65      -8.585 -11.393  -5.385  0.00  0.00    +0.000 N 
ATOM    650  C2  C   B  65      -9.263 -12.370  -6.129  0.00  0.00    +0.000 A 
ATOM    651  O2  C   B  65     -10.418 -12.681  -5.801  0.00  0.00    +0.000 OA
ATOM    652  N3  C   B  65      -8.648 -12.953  -7.188  0.00  0.00    +0.000 NA
ATOM    653  C4  C   B  65      -7.404 -12.595  -7.517  0.00  0.00    +0.000 A 
ATOM    654  N4  C   B  65      -6.836 -13.197  -8.569  0.00  0.00    +0.000 N 
ATOM    655  C5  C   B  65      -6.691 -11.606  -6.784  0.00  0.00    +0.000 A 
ATOM    656  C6  C   B  65      -7.311 -11.033  -5.738  0.00  0.00    +0.000 A 
ATOM    657  H   C   B  65      -7.334 -13.881  -9.073  0.00  0.00    +0.000 HD
ATOM    658  H   C   B  65      -5.920 -12.956  -8.839  0.00  0.00    +0.000 HD
ENDBRANCH 648 649
BRANCH 647 659
ATOM    659  O2' C   B  65     -10.454 -11.441  -2.256  0.00  0.00    +0.000 OA
ATOM    660  H   C   B  65     -10.549 -10.496  -2.060  0.00  0.00    +0.000 HD
ENDBRANCH 647 659
BRANCH 646 661
ATOM    661  O3' C   B  65      -8.046 -11.416  -0.854  0.00  0.00    +0.000 OA
BRANCH 661 662
ATOM    662  P   A   B  66      -7.239 -12.671  -0.270  0.00  0.00    +0.000 P 
ATOM    663  OP2 A   B  66      -5.943 -12.766  -0.984  0.00  0.00    +0.000 OA
BRANCH 662 664
ATOM    664  OP1 A   B  66      -7.259 -12.588   1.213  0.00  0.00    +0.000 OA
ATOM    665  H   A   B  66      -6.719 -11.836   1.502  0.00  0.00    +0.000 HD
ENDBRANCH 662 664
BRANCH 662 666
ATOM    666  O5' A   B  66      -8.133 -13.914  -0.707  0.00  0.00    +0.000 OA
BRANCH 666 667
ATOM    667  C5' A   B  66      -9.461 -14.065  -0.218  0.00  0.00    +0.000 C 
BRANCH 667 668
ATOM    668  C4' A   B  66     -10.184 -15.152  -0.973  0.00  0.00    +0.000 C 
ATOM    669  O4' A   B  66     -10.302 -14.782  -2.371  0.00  0.00    +0.000 OA
ATOM    670  C3' A   B  66      -9.498 -16.503  -0.999  0.00  0.00    +0.000 C 
ATOM    671  C2' A   B  66     -10.100 -17.140  -2.242  0.00  0.00    +0.000 C 
ATOM    672  C1' A   B  66     -10.207 -15.938  -3.181  0.00  0.00    +0.000 C 
BRANCH 672 673
ATOM    673  N9  A   B  66      -9.034 -15.803  -4.061  0.00  0.00    +0.000 N 
ATOM    674  C8  A   B  66      -7.981 -14.940  -3.927  0.00  0.00    +0.000 A 
ATOM    675  N7  A   B  66      -7.083 -15.052  -4.877  0.00  0.00    +0.000 NA
ATOM    676  C5  A   B  66      -7.576 -16.058  -5.692  0.00  0.00    +0.000 A 
ATOM    677  C6  A   B  66      -7.093 -16.649  -6.870  0.00  0.00    +0.000 A 
ATOM    678  N1  A   B  66      -7.831 -17.630  -7.429  0.00  0.00    +0.000 NA
ATOM    679  C2  A   B  66      -8.976 -17.984  -6.841  0.00  0.00    +0.000 A 
ATOM    680  N3  A   B  66      -9.536 -17.502  -5.734  0.00  0.00    +0.000 NA
ATOM    681  C4  A   B  66      -8.778 -16.530  -5.199  0.00  0.00    +0.000 A 
BRANCH 677 682
ATOM    682  N6  A   B  66      -5.945 -16.291  -7.457  0.00  0.00    +0.000 N 
ATOM    683  H   A   B  66      -5.654 -16.740  -8.283  0.00  0.00    +0.000 HD
ATOM    684  H   A   B  66      -5.392 -15.579  -7.062  0.00  0.00    +0.000 HD
ENDBRANCH 677 682
ENDBRANCH 672 673
BRANCH 671 685
ATOM    685  O2' A   B  66     -11.400 -17.652  -2.000  0.00  0.00    +0.000 OA
ATOM    686  H   A   B  66     -11.970 -16.942  -1.665  0.00  0.00    +0.000 HD
ENDBRANCH 671 685
BRANCH 670 687
ATOM    687  O3' A   B  66      -9.721 -17.248   0.193  0.00  0.00    +0.000 OA
BRANCH 687 688
ATOM    688  P   A   B  67      -8.605 -18.262   0.749  0.00  0.00    +0.000 P 
ATOM    689  OP2 A   B  67      -7.268 -17.654   0.525  0.00  0.00    +0.000 OA
BRANCH 688 690
ATOM    690  OP1 A   B  67      -9.003 -18.673   2.117  0.00  0.00    +0.000 OA
ATOM    691  H   A   B  67      -9.897 -19.049   2.094  0.00  0.00    +0.000 HD
ENDBRANCH 688 690
BRANCH 688 692
ATOM    692  O5' A   B  67      -8.745 -19.524  -0.210  0.00  0.00    +0.000 OA
BRANCH 692 693
ATOM    693  C5' A   B  67      -9.961 -20.253  -0.281  0.00  0.00    +0.000 C 
BRANCH 693 694
ATOM    694  C4' A   B  67      -9.937 -21.227  -1.434  0.00  0.00    +0.000 C 
ATOM    695  O4' A   B  67      -9.851 -20.501  -2.690  0.00  0.00    +0.000 OA
ATOM    696  C3' A   B  67      -8.756 -22.169  -1.470  0.00  0.00    +0.000 C 
ATOM    697  C2' A   B  67      -8.704 -22.560  -2.940  0.00  0.00    +0.000 C 
ATOM    698  C1' A   B  67      -9.082 -21.240  -3.616  0.00  0.00    +0.000 C 
BRANCH 698 699
ATOM    699  N9  A   B  67      -7.905 -20.443  -3.995  0.00  0.00    +0.000 N 
ATOM    700  C8  A   B  67      -7.347 -19.392  -3.316  0.00  0.00    +0.000 A 
ATOM    701  N7  A   B  67      -6.295 -18.882  -3.911  0.00  0.00    +0.000 NA
ATOM    702  C5  A   B  67      -6.151 -19.650  -5.058  0.00  0.00    +0.000 A 
ATOM    703  C6  A   B  67      -5.225 -19.616  -6.113  0.00  0.00    +0.000 A 
ATOM    704  N1  A   B  67      -5.366 -20.521  -7.097  0.00  0.00    +0.000 NA
ATOM    705  C2  A   B  67      -6.371 -21.398  -7.027  0.00  0.00    +0.000 A 
ATOM    706  N3  A   B  67      -7.305 -21.530  -6.090  0.00  0.00    +0.000 NA
ATOM    707  C4  A   B  67      -7.137 -20.613  -5.121  0.00  0.00    +0.000 A 
BRANCH 703 708
ATOM    708  N6  A   B  67      -4.217 -18.735  -6.180  0.00  0.00    +0.000 N 
ATOM    709  H   A   B  67      -3.595 -18.755  -6.943  0.00  0.00    +0.000 HD
ATOM    710  H   A   B  67      -4.098 -18.068  -5.466  0.00  0.00    +0.000 HD
ENDBRANCH 703 708
ENDBRANCH 698 699
BRANCH 697 711
ATOM    711  O2' A   B  67      -9.674 -23.543  -3.260  0.00  0.00    +0.000 OA
ATOM    712  H   A   B  67     -10.555 -23.219  -3.016  0.00  0.00    +0.000 HD
ENDBRANCH 697 711
BRANCH 696 713
ATOM    713  O3' A   B  67      -8.914 -23.272  -0.582  0.00  0.00    +0.000 OA
BRANCH 713 714
ATOM    714  P   A   B  68      -7.667 -23.844   0.245  0.00  0.00    +0.000 P 
ATOM    715  OP2 A   B  68      -6.833 -22.689   0.670  0.00  0.00    +0.000 OA
BRANCH 714 716
ATOM    716  OP1 A   B  68      -8.184 -24.790   1.259  0.00  0.00    +0.000 OA
ATOM    717  H   A   B  68      -8.705 -25.481   0.821  0.00  0.00    +0.000 HD
ENDBRANCH 714 716
BRANCH 714 718
ATOM    718  O5' A   B  68      -6.841 -24.670  -0.838  0.00  0.00    +0.000 OA
BRANCH 718 719
ATOM    719  C5' A   B  68      -7.427 -25.769  -1.509  0.00  0.00    +0.000 C 
BRANCH 719 720
ATOM    720  C4' A   B  68      -6.581 -26.190  -2.687  0.00  0.00    +0.000 C 
ATOM    721  O4' A   B  68      -6.561 -25.128  -3.680  0.00  0.00    +0.000 OA
ATOM    722  C3' A   B  68      -5.120 -26.440  -2.385  0.00  0.00    +0.000 C 
ATOM    723  C2' A   B  68      -4.465 -26.235  -3.743  0.00  0.00    +0.000 C 
ATOM    724  C1' A   B  68      -5.297 -25.077  -4.304  0.00  0.00    +0.000 C 
BRANCH 724 725
ATOM    725  N9  A   B  68      -4.692 -23.765  -4.023  0.00  0.00    +0.000 N 
ATOM    726  C8  A   B  68      -4.997 -22.896  -3.008  0.00  0.00    +0.000 A 
ATOM    727  N7  A   B  68      -4.278 -21.798  -3.020  0.00  0.00    +0.000 NA
ATOM    728  C5  A   B  68      -3.444 -21.955  -4.119  0.00  0.00    +0.000 A 
ATOM    729  C6  A   B  68      -2.449 -21.140  -4.675  0.00  0.00    +0.000 A 
ATOM    730  N6  A   B  68      -2.104 -19.947  -4.168  0.00  0.00    +0.000 N 
ATOM    731  N1  A   B  68      -1.809 -21.593  -5.768  0.00  0.00    +0.000 NA
ATOM    732  C2  A   B  68      -2.152 -22.784  -6.265  0.00  0.00    +0.000 A 
ATOM    733  N3  A   B  68      -3.072 -23.642  -5.833  0.00  0.00    +0.000 NA
ATOM    734  C4  A   B  68      -3.692 -23.162  -4.745  0.00  0.00    +0.000 A 
ATOM    735  H   A   B  68      -1.397 -19.415  -4.599  0.00  0.00    +0.000 HD
ATOM    736  H   A   B  68      -2.558 -19.604  -3.365  0.00  0.00    +0.000 HD
ENDBRANCH 724 725
BRANCH 723 737
ATOM    737  O2' A   B  68      -4.614 -27.368  -4.579  0.00  0.00    +0.000 OA
ATOM    738  H   A   B  68      -5.556 -27.578  -4.675  0.00  0.00    +0.000 HD
ENDBRANCH 723 737
BRANCH 722 739
ATOM    739  O3' A   B  68      -4.902 -27.732  -1.829  0.00  0.00    +0.000 OA
BRANCH 739 740
ATOM    740  P   A   B  69      -3.722 -28.018  -0.812  0.00  0.00    +0.000 P 
ATOM    741  OP2 A   B  69      -3.231 -26.703  -0.316  0.00  0.00    +0.000 OA
BRANCH 740 742
ATOM    742  OP1 A   B  69      -4.159 -29.035   0.164  0.00  0.00    +0.000 OA
ATOM    743  H   A   B  69      -4.449 -29.832  -0.307  0.00  0.00    +0.000 HD
ENDBRANCH 740 742
BRANCH 740 744
ATOM    744  O5' A   B  69      -2.601 -28.664  -1.733  0.00  0.00    +0.000 OA
BRANCH 744 745
ATOM    745  C5' A   B  69      -1.300 -28.938  -1.228  0.00  0.00    +0.000 C 
BRANCH 745 746
ATOM    746  C4' A   B  69      -0.270 -28.742  -2.309  0.00  0.00    +0.000 C 
ATOM    747  O4' A   B  69      -0.722 -27.701  -3.204  0.00  0.00    +0.000 OA
ATOM    748  C3' A   B  69       1.097 -28.281  -1.820  0.00  0.00    +0.000 C 
ATOM    749  C2' A   B  69       1.635 -27.482  -2.990  0.00  0.00    +0.000 C 
ATOM    750  C1' A   B  69       0.355 -26.885  -3.603  0.00  0.00    +0.000 C 
BRANCH 750 751
ATOM    751  N9  A   B  69       0.069 -25.509  -3.186  0.00  0.00    +0.000 N 
ATOM    752  C8  A   B  69      -1.130 -25.022  -2.728  0.00  0.00    +0.000 A 
ATOM    753  N7  A   B  69      -1.115 -23.743  -2.438  0.00  0.00    +0.000 NA
ATOM    754  C5  A   B  69       0.184 -23.361  -2.733  0.00  0.00    +0.000 A 
ATOM    755  C6  A   B  69       0.841 -22.127  -2.644  0.00  0.00    +0.000 A 
ATOM    756  N6  A   B  69       0.244 -21.002  -2.211  0.00  0.00    +0.000 N 
ATOM    757  N1  A   B  69       2.135 -22.077  -3.014  0.00  0.00    +0.000 NA
ATOM    758  C2  A   B  69       2.719 -23.199  -3.447  0.00  0.00    +0.000 A 
ATOM    759  N3  A   B  69       2.206 -24.415  -3.575  0.00  0.00    +0.000 NA
ATOM    760  C4  A   B  69       0.919 -24.432  -3.198  0.00  0.00    +0.000 A 
ATOM    761  H   A   B  69       0.753 -20.160  -2.168  0.00  0.00    +0.000 HD
ATOM    762  H   A   B  69      -0.701 -21.021  -1.937  0.00  0.00    +0.000 HD
ENDBRANCH 750 751
BRANCH 749 763
ATOM    763  O2' A   B  69       2.277 -28.304  -3.948  0.00  0.00    +0.000 OA
ATOM    764  H   A   B  69       1.657 -28.981  -4.261  0.00  0.00    +0.000 HD
ENDBRANCH 749 763
BRANCH 748 765
ATOM    765  O3' A   B  69       1.934 -29.405  -1.486  0.00  0.00    +0.000 OA
BRANCH 765 766
ATOM    766  P   A   B  70       2.812 -29.391  -0.228  0.00  0.00    +0.000 P 
ATOM    767  OP2 A   B  70       3.418 -28.035  -0.114  0.00  0.00    +0.000 OA
BRANCH 766 768
ATOM    768  OP1 A   B  70       2.016 -29.937   0.888  0.00  0.00    +0.000 OA
ATOM    769  H   A   B  70       1.696 -30.822   0.654  0.00  0.00    +0.000 HD
ENDBRANCH 766 768
BRANCH 766 770
ATOM    770  O5' A   B  70       3.992 -30.415  -0.559  0.00  0.00    +0.000 OA
BRANCH 770 771
ATOM    771  C5' A   B  70       3.851 -31.825  -0.393  0.00  0.00    +0.000 C 
BRANCH 771 772
ATOM    772  C4' A   B  70       4.643 -32.567  -1.438  0.00  0.00    +0.000 C 
ATOM    773  O4' A   B  70       4.209 -32.142  -2.748  0.00  0.00    +0.000 OA
ATOM    774  C3' A   B  70       6.148 -32.328  -1.383  0.00  0.00    +0.000 C 
ATOM    775  C2' A   B  70       6.562 -32.375  -2.850  0.00  0.00    +0.000 C 
ATOM    776  C1' A   B  70       5.324 -31.819  -3.557  0.00  0.00    +0.000 C 
BRANCH 776 777
ATOM    777  N9  A   B  70       5.321 -30.362  -3.760  0.00  0.00    +0.000 N 
ATOM    778  C8  A   B  70       4.250 -29.660  -4.246  0.00  0.00    +0.000 A 
ATOM    779  N7  A   B  70       4.445 -28.365  -4.329  0.00  0.00    +0.000 NA
ATOM    780  C5  A   B  70       5.735 -28.193  -3.865  0.00  0.00    +0.000 A 
ATOM    781  C6  A   B  70       6.529 -27.045  -3.708  0.00  0.00    +0.000 A 
ATOM    782  N1  A   B  70       7.779 -27.203  -3.227  0.00  0.00    +0.000 NA
ATOM    783  C2  A   B  70       8.184 -28.435  -2.930  0.00  0.00    +0.000 A 
ATOM    784  N3  A   B  70       7.530 -29.583  -3.039  0.00  0.00    +0.000 NA
ATOM    785  C4  A   B  70       6.295 -29.406  -3.513  0.00  0.00    +0.000 A 
BRANCH 781 786
ATOM    786  N6  A   B  70       6.102 -25.805  -4.013  0.00  0.00    +0.000 N 
ATOM    787  H   A   B  70       5.193 -25.670  -4.365  0.00  0.00    +0.000 HD
ATOM    788  H   A   B  70       6.699 -25.033  -3.884  0.00  0.00    +0.000 HD
ENDBRANCH 781 786
ENDBRANCH 776 777
BRANCH 775 789
ATOM    789  O2' A   B  70       6.789 -33.708  -3.273  0.00  0.00    +0.000 OA
ATOM    790  H   A   B  70       5.992 -34.238  -3.113  0.00  0.00    +0.000 HD
ENDBRANCH 775 789
BRANCH 774 791
ATOM    791  O3' A   B  70       6.802 -33.333  -0.589  0.00  0.00    +0.000 OA
BRANCH 791 792
ATOM    792  P   U   B  71       8.196 -33.064   0.107  0.00  0.00    +0.000 P 
ATOM    793  OP2 U   B  71       8.202 -31.656   0.582  0.00  0.00    +0.000 OA
BRANCH 792 794
ATOM    794  OP1 U   B  71       8.439 -34.155   1.079  0.00  0.00    +0.000 OA
ATOM    795  H   U   B  71       8.404 -35.010   0.621  0.00  0.00    +0.000 HD
ENDBRANCH 792 794
BRANCH 792 796
ATOM    796  O5' U   B  71       9.268 -33.215  -1.076  0.00  0.00    +0.000 OA
BRANCH 796 797
ATOM    797  C5' U   B  71      10.665 -33.357  -0.776  0.00  0.00    +0.000 C 
BRANCH 797 798
ATOM    798  C4' U   B  71      11.502 -32.532  -1.725  0.00  0.00    +0.000 C 
ATOM    799  O4' U   B  71      10.705 -31.414  -2.216  0.00  0.00    +0.000 OA
ATOM    800  C3' U   B  71      12.745 -31.884  -1.123  0.00  0.00    +0.000 C 
ATOM    801  C2' U   B  71      12.942 -30.648  -1.984  0.00  0.00    +0.000 C 
ATOM    802  C1' U   B  71      11.486 -30.249  -2.272  0.00  0.00    +0.000 C 
BRANCH 802 803
ATOM    803  N1  U   B  71      10.947 -29.281  -1.293  0.00  0.00    +0.000 N 
ATOM    804  C2  U   B  71      11.316 -27.960  -1.406  0.00  0.00    +0.000 A 
ATOM    805  O2  U   B  71      12.076 -27.553  -2.269  0.00  0.00    +0.000 OA
ATOM    806  N3  U   B  71      10.771 -27.119  -0.466  0.00  0.00    +0.000 N 
ATOM    807  C4  U   B  71       9.907 -27.461   0.552  0.00  0.00    +0.000 A 
ATOM    808  O4  U   B  71       9.501 -26.589   1.322  0.00  0.00    +0.000 OA
ATOM    809  C5  U   B  71       9.567 -28.850   0.602  0.00  0.00    +0.000 A 
ATOM    810  C6  U   B  71      10.083 -29.690  -0.302  0.00  0.00    +0.000 A 
ATOM    811  H   U   B  71      11.025 -26.170  -0.526  0.00  0.00    +0.000 HD
ENDBRANCH 802 803
BRANCH 801 812
ATOM    812  O2' U   B  71      13.602 -30.937  -3.200  0.00  0.00    +0.000 OA
ATOM    813  H   U   B  71      13.105 -31.614  -3.685  0.00  0.00    +0.000 HD
ENDBRANCH 801 812
BRANCH 800 814
ATOM    814  O3' U   B  71      13.874 -32.749  -1.144  0.00  0.00    +0.000 OA
BRANCH 814 815
ATOM    815  P   C   B  72      15.156 -32.455  -0.275  0.00  0.00    +0.000 P 
ATOM    816  OP2 C   B  72      15.715 -31.150  -0.707  0.00  0.00    +0.000 OA
BRANCH 815 817
ATOM    817  OP1 C   B  72      14.777 -32.655   1.141  0.00  0.00    +0.000 OA
ATOM    818  H   C   B  72      14.137 -31.975   1.404  0.00  0.00    +0.000 HD
ENDBRANCH 815 817
BRANCH 815 819
ATOM    819  O5' C   B  72      16.203 -33.583  -0.674  0.00  0.00    +0.000 OA
BRANCH 819 820
ATOM    820  C5' C   B  72      15.927 -34.966  -0.420  0.00  0.00    +0.000 C 
BRANCH 820 821
ATOM    821  C4' C   B  72      16.848 -35.848  -1.225  0.00  0.00    +0.000 C 
ATOM    822  O4' C   B  72      16.695 -35.555  -2.637  0.00  0.00    +0.000 OA
ATOM    823  C3' C   B  72      18.329 -35.669  -0.963  0.00  0.00    +0.000 C 
ATOM    824  C2' C   B  72      18.961 -36.172  -2.256  0.00  0.00    +0.000 C 
ATOM    825  C1' C   B  72      17.943 -35.679  -3.292  0.00  0.00    +0.000 C 
BRANCH 825 826
ATOM    826  N1  C   B  72      18.311 -34.371  -3.871  0.00  0.00    +0.000 N 
ATOM    827  C2  C   B  72      19.274 -34.328  -4.885  0.00  0.00    +0.000 A 
ATOM    828  O2  C   B  72      19.785 -35.389  -5.279  0.00  0.00    +0.000 OA
ATOM    829  N3  C   B  72      19.625 -33.132  -5.416  0.00  0.00    +0.000 NA
ATOM    830  C4  C   B  72      19.055 -32.009  -4.971  0.00  0.00    +0.000 A 
ATOM    831  N4  C   B  72      19.436 -30.853  -5.520  0.00  0.00    +0.000 N 
ATOM    832  C5  C   B  72      18.073 -32.024  -3.941  0.00  0.00    +0.000 A 
ATOM    833  C6  C   B  72      17.733 -33.213  -3.425  0.00  0.00    +0.000 A 
ATOM    834  H   C   B  72      20.116 -30.847  -6.232  0.00  0.00    +0.000 HD
ATOM    835  H   C   B  72      19.037 -30.007  -5.212  0.00  0.00    +0.000 HD
ENDBRANCH 825 826
BRANCH 824 836
ATOM    836  O2' C   B  72      19.035 -37.579  -2.299  0.00  0.00    +0.000 OA
ATOM    837  H   C   B  72      18.148 -37.953  -2.178  0.00  0.00    +0.000 HD
ENDBRANCH 824 836
BRANCH 823 838
ATOM    838  O3' C   B  72      18.770 -36.386   0.188  0.00  0.00    +0.000 OA
BRANCH 838 839
ATOM    839  P   U   B  73      19.851 -35.754   1.186  0.00  0.00    +0.000 P 
ATOM    840  OP2 U   B  73      19.571 -34.299   1.289  0.00  0.00    +0.000 OA
BRANCH 839 841
ATOM    841  OP1 U   B  73      19.885 -36.586   2.411  0.00  0.00    +0.000 OA
ATOM    842  H   U   B  73      20.079 -37.506   2.172  0.00  0.00    +0.000 HD
ENDBRANCH 839 841
BRANCH 839 843
ATOM    843  O5' U   B  73      21.236 -35.941   0.422  0.00  0.00    +0.000 OA
BRANCH 843 844
ATOM    844  C5' U   B  73      21.804 -37.231   0.251  0.00  0.00    +0.000 C 
BRANCH 844 845
ATOM    845  C4' U   B  73      22.994 -37.194  -0.678  0.00  0.00    +0.000 C 
ATOM    846  O4' U   B  73      22.592 -36.673  -1.972  0.00  0.00    +0.000 OA
ATOM    847  C3' U   B  73      24.143 -36.300  -0.260  0.00  0.00    +0.000 C 
ATOM    848  C2' U   B  73      24.858 -36.061  -1.586  0.00  0.00    +0.000 C 
ATOM    849  C1' U   B  73      23.672 -35.967  -2.552  0.00  0.00    +0.000 C 
BRANCH 849 850
ATOM    850  N1  U   B  73      23.263 -34.569  -2.800  0.00  0.00    +0.000 N 
ATOM    851  C2  U   B  73      23.981 -33.852  -3.743  0.00  0.00    +0.000 A 
ATOM    852  O2  U   B  73      24.916 -34.328  -4.364  0.00  0.00    +0.000 OA
ATOM    853  N3  U   B  73      23.568 -32.555  -3.934  0.00  0.00    +0.000 N 
ATOM    854  C4  U   B  73      22.530 -31.915  -3.291  0.00  0.00    +0.000 A 
ATOM    855  O4  U   B  73      22.280 -30.743  -3.569  0.00  0.00    +0.000 OA
ATOM    856  C5  U   B  73      21.835 -32.719  -2.332  0.00  0.00    +0.000 A 
ATOM    857  C6  U   B  73      22.215 -33.988  -2.125  0.00  0.00    +0.000 A 
ATOM    858  H   U   B  73      24.066 -32.028  -4.600  0.00  0.00    +0.000 HD
ENDBRANCH 849 850
BRANCH 848 859
ATOM    859  O2' U   B  73      25.672 -37.154  -1.954  0.00  0.00    +0.000 OA
ATOM    860  H   U   B  73      25.134 -37.960  -1.990  0.00  0.00    +0.000 HD
ENDBRANCH 848 859
BRANCH 847 861
ATOM    861  O3' U   B  73      24.978 -36.899   0.727  0.00  0.00    +0.000 OA
BRANCH 861 862
ATOM    862  P   C   B  74      25.853 -35.988   1.699  0.00  0.00    +0.000 P 
ATOM    863  OP2 C   B  74      25.075 -34.756   2.006  0.00  0.00    +0.000 OA
BRANCH 862 864
ATOM    864  OP1 C   B  74      26.347 -36.838   2.808  0.00  0.00    +0.000 OA
ATOM    865  H   C   B  74      26.831 -37.596   2.444  0.00  0.00    +0.000 HD
ENDBRANCH 862 864
BRANCH 862 866
ATOM    866  O5' C   B  74      27.099 -35.572   0.799  0.00  0.00    +0.000 OA
BRANCH 866 867
ATOM    867  C5' C   B  74      28.037 -36.539   0.349  0.00  0.00    +0.000 C 
BRANCH 867 868
ATOM    868  C4' C   B  74      28.967 -35.964  -0.693  0.00  0.00    +0.000 C 
ATOM    869  O4' C   B  74      28.197 -35.450  -1.813  0.00  0.00    +0.000 OA
ATOM    870  C3' C   B  74      29.816 -34.790  -0.259  0.00  0.00    +0.000 C 
ATOM    871  C2' C   B  74      30.166 -34.133  -1.593  0.00  0.00    +0.000 C 
ATOM    872  C1' C   B  74      28.871 -34.345  -2.384  0.00  0.00    +0.000 C 
BRANCH 872 873
ATOM    873  N1  C   B  74      27.979 -33.164  -2.353  0.00  0.00    +0.000 N 
ATOM    874  C2  C   B  74      28.205 -32.132  -3.271  0.00  0.00    +0.000 A 
ATOM    875  O2  C   B  74      29.134 -32.243  -4.083  0.00  0.00    +0.000 OA
ATOM    876  N3  C   B  74      27.402 -31.040  -3.257  0.00  0.00    +0.000 NA
ATOM    877  C4  C   B  74      26.405 -30.956  -2.371  0.00  0.00    +0.000 A 
ATOM    878  N4  C   B  74      25.640 -29.864  -2.393  0.00  0.00    +0.000 N 
ATOM    879  C5  C   B  74      26.155 -31.990  -1.426  0.00  0.00    +0.000 A 
ATOM    880  C6  C   B  74      26.955 -33.065  -1.450  0.00  0.00    +0.000 A 
ATOM    881  H   C   B  74      25.818 -29.152  -3.049  0.00  0.00    +0.000 HD
ATOM    882  H   C   B  74      24.898 -29.770  -1.753  0.00  0.00    +0.000 HD
ENDBRANCH 872 873
BRANCH 871 883
ATOM    883  O2' C   B  74      31.227 -34.800  -2.245  0.00  0.00    +0.000 OA
ATOM    884  H   C   B  74      30.996 -35.734  -2.366  0.00  0.00    +0.000 HD
ENDBRANCH 871 883
BRANCH 870 885
ATOM    885  O3' C   B  74      30.964 -35.196   0.487  0.00  0.00    +0.000 OA
BRANCH 885 886
ATOM    886  P   C   B  75      31.579 -34.249   1.617  0.00  0.00    +0.000 P 
ATOM    887  OP2 C   B  75      30.448 -33.628   2.350  0.00  0.00    +0.000 OA
BRANCH 886 888
ATOM    888  OP1 C   B  75      32.606 -35.011   2.362  0.00  0.00    +0.000 OA
ATOM    889  H   C   B  75      33.271 -35.349   1.742  0.00  0.00    +0.000 HD
ENDBRANCH 886 888
BRANCH 886 890
ATOM    890  O5' C   B  75      32.312 -33.110   0.783  0.00  0.00    +0.000 OA
BRANCH 890 891
ATOM    891  C5' C   B  75      33.454 -33.397  -0.005  0.00  0.00    +0.000 C 
BRANCH 891 892
ATOM    892  C4' C   B  75      33.889 -32.194  -0.805  0.00  0.00    +0.000 C 
ATOM    893  O4' C   B  75      32.844 -31.821  -1.746  0.00  0.00    +0.000 OA
ATOM    894  C3' C   B  75      34.139 -30.927  -0.014  0.00  0.00    +0.000 C 
ATOM    895  C2' C   B  75      33.990 -29.843  -1.081  0.00  0.00    +0.000 C 
ATOM    896  C1' C   B  75      32.867 -30.423  -1.950  0.00  0.00    +0.000 C 
BRANCH 896 897
ATOM    897  N1  C   B  75      31.535 -29.871  -1.621  0.00  0.00    +0.000 N 
ATOM    898  C2  C   B  75      31.158 -28.652  -2.197  0.00  0.00    +0.000 A 
ATOM    899  O2  C   B  75      31.944 -28.078  -2.963  0.00  0.00    +0.000 OA
ATOM    900  N3  C   B  75      29.941 -28.125  -1.913  0.00  0.00    +0.000 NA
ATOM    901  C4  C   B  75      29.115 -28.772  -1.085  0.00  0.00    +0.000 A 
ATOM    902  N4  C   B  75      27.924 -28.219  -0.835  0.00  0.00    +0.000 N 
ATOM    903  C5  C   B  75      29.473 -30.013  -0.484  0.00  0.00    +0.000 A 
ATOM    904  C6  C   B  75      30.678 -30.523  -0.775  0.00  0.00    +0.000 A 
ATOM    905  H   C   B  75      27.682 -27.361  -1.253  0.00  0.00    +0.000 HD
ATOM    906  H   C   B  75      27.289 -28.670  -0.233  0.00  0.00    +0.000 HD
ENDBRANCH 896 897
BRANCH 895 907
ATOM    907  O2' C   B  75      35.162 -29.710  -1.865  0.00  0.00    +0.000 OA
ATOM    908  H   C   B  75      35.382 -30.566  -2.266  0.00  0.00    +0.000 HD
ENDBRANCH 895 907
BRANCH 894 909
ATOM    909  O3' C   B  75      35.421 -30.933   0.606  0.00  0.00    +0.000 OA
BRANCH 909 910
ATOM    910  P   A   B  76      35.619 -30.331   2.058  0.00  0.00    +0.000 P 
ATOM    911  OP1 A   B  76      36.901 -30.854   2.596  0.00  0.00    +0.000 OA
BRANCH 910 912
ATOM    912  OP2 A   B  76      34.364 -30.554   2.806  0.00  0.00    +0.000 OA
ATOM    913  H   A   B  76      33.624 -30.153   2.323  0.00  0.00    +0.000 HD
ENDBRANCH 910 912
BRANCH 910 914
ATOM    914  O5' A   B  76      35.773 -28.763   1.822  0.00  0.00    +0.000 OA
BRANCH 914 915
ATOM    915  C5' A   B  76      36.967 -28.252   1.266  0.00  0.00    +0.000 C 
BRANCH 915 916
ATOM    916  C4' A   B  76      36.968 -26.741   1.256  0.00  0.00    +0.000 C 
ATOM    917  O4' A   B  76      35.888 -26.284   0.404  0.00  0.00    +0.000 OA
ATOM    918  C3' A   B  76      36.758 -26.101   2.631  0.00  0.00    +0.000 C 
ATOM    919  C2' A   B  76      35.503 -25.252   2.506  0.00  0.00    +0.000 C 
ATOM    920  C1' A   B  76      35.188 -25.235   1.022  0.00  0.00    +0.000 C 
BRANCH 920 921
ATOM    921  N9  A   B  76      33.753 -25.422   0.754  0.00  0.00    +0.000 N 
ATOM    922  C8  A   B  76      33.101 -26.599   0.519  0.00  0.00    +0.000 A 
ATOM    923  N7  A   B  76      31.809 -26.465   0.311  0.00  0.00    +0.000 NA
ATOM    924  C5  A   B  76      31.604 -25.103   0.418  0.00  0.00    +0.000 A 
ATOM    925  C6  A   B  76      30.447 -24.312   0.304  0.00  0.00    +0.000 A 
ATOM    926  N1  A   B  76      30.579 -22.981   0.464  0.00  0.00    +0.000 NA
ATOM    927  C2  A   B  76      31.790 -22.486   0.722  0.00  0.00    +0.000 A 
ATOM    928  N3  A   B  76      32.949 -23.128   0.851  0.00  0.00    +0.000 NA
ATOM    929  C4  A   B  76      32.785 -24.448   0.684  0.00  0.00    +0.000 A 
BRANCH 925 930
ATOM    930  N6  A   B  76      29.230 -24.812   0.044  0.00  0.00    +0.000 N 
ATOM    931  H   A   B  76      29.112 -25.782  -0.076  0.00  0.00    +0.000 HD
ATOM    932  H   A   B  76      28.455 -24.209  -0.026  0.00  0.00    +0.000 HD
ENDBRANCH 925 930
ENDBRANCH 920 921
BRANCH 918 933
ATOM    933  O3' A   B  76      37.878 -25.315   3.012  0.00  0.00    +0.000 OA
ATOM    934  H   A   B  76      38.024 -24.619   2.352  0.00  0.00    +0.000 HD
ENDBRANCH 918 933
BRANCH 919 935
ATOM    935  O2' A   B  76      35.645 -23.916   2.995  0.00  0.00    +0.000 OA
ATOM    936  H   A   B  76      36.341 -23.461   2.495  0.00  0.00    +0.000 HD
ENDBRANCH 919 935
ENDBRANCH 915 916
ENDBRANCH 914 915
ENDBRANCH 910 914
ENDBRANCH 909 910
ENDBRANCH 894 909
ENDBRANCH 891 892
ENDBRANCH 890 891
ENDBRANCH 886 890
ENDBRANCH 885 886
ENDBRANCH 870 885
ENDBRANCH 867 868
ENDBRANCH 866 867
ENDBRANCH 862 866
ENDBRANCH 861 862
ENDBRANCH 847 861
ENDBRANCH 844 845
ENDBRANCH 843 844
ENDBRANCH 839 843
ENDBRANCH 838 839
ENDBRANCH 823 838
ENDBRANCH 820 821
ENDBRANCH 819 820
ENDBRANCH 815 819
ENDBRANCH 814 815
ENDBRANCH 800 814
ENDBRANCH 797 798
ENDBRANCH 796 797
ENDBRANCH 792 796
ENDBRANCH 791 792
ENDBRANCH 774 791
ENDBRANCH 771 772
ENDBRANCH 770 771
ENDBRANCH 766 770
ENDBRANCH 765 766
ENDBRANCH 748 765
ENDBRANCH 745 746
ENDBRANCH 744 745
ENDBRANCH 740 744
ENDBRANCH 739 740
ENDBRANCH 722 739
ENDBRANCH 719 720
ENDBRANCH 718 719
ENDBRANCH 714 718
ENDBRANCH 713 714
ENDBRANCH 696 713
ENDBRANCH 693 694
ENDBRANCH 692 693
ENDBRANCH 688 692
ENDBRANCH 687 688
ENDBRANCH 670 687
ENDBRANCH 667 668
ENDBRANCH 666 667
ENDBRANCH 662 666
ENDBRANCH 661 662
ENDBRANCH 646 661
ENDBRANCH 643 644
ENDBRANCH 642 643
ENDBRANCH 638 642
ENDBRANCH 637 638
ENDBRANCH 620 637
ENDBRANCH 617 618
ENDBRANCH 616 617
ENDBRANCH 612 616
ENDBRANCH 611 612
ENDBRANCH 597 611
ENDBRANCH 594 595
ENDBRANCH 593 594
ENDBRANCH 589 593
ENDBRANCH 588 589
ENDBRANCH 573 588
ENDBRANCH 570 571
ENDBRANCH 569 570
ENDBRANCH 565 569
ENDBRANCH 564 565
ENDBRANCH 547 564
ENDBRANCH 544 545
ENDBRANCH 543 544
ENDBRANCH 539 543
ENDBRANCH 538 539
ENDBRANCH 519 538
ENDBRANCH 516 517
ENDBRANCH 515 516
ENDBRANCH 511 515
ENDBRANCH 510 511
ENDBRANCH 493 510
ENDBRANCH 490 491
ENDBRANCH 489 490
ENDBRANCH 485 489
ENDBRANCH 484 485
ENDBRANCH 469 484
ENDBRANCH 466 467
ENDBRANCH 465 466
ENDBRANCH 461 465
ENDBRANCH 460 461
ENDBRANCH 443 460
ENDBRANCH 440 441
ENDBRANCH 439 440
ENDBRANCH 435 439
ENDBRANCH 434 435
ENDBRANCH 417 434
ENDBRANCH 414 415
ENDBRANCH 413 414
ENDBRANCH 409 413
ENDBRANCH 408 409
ENDBRANCH 391 408
ENDBRANCH 388 389
ENDBRANCH 387 388
ENDBRANCH 383 387
ENDBRANCH 382 383
ENDBRANCH 365 382
ENDBRANCH 362 363
ENDBRANCH 361 362
ENDBRANCH 357 361
ENDBRANCH 356 357
ENDBRANCH 339 356
ENDBRANCH 336 337
ENDBRANCH 335 336
ENDBRANCH 331 335
ENDBRANCH 330 331
ENDBRANCH 316 330
ENDBRANCH 313 314
ENDBRANCH 312 313
ENDBRANCH 308 312
ENDBRANCH 307 308
ENDBRANCH 293 307
ENDBRANCH 290 291
ENDBRANCH 289 290
ENDBRANCH 285 289
ENDBRANCH 284 285
ENDBRANCH 270 284
ENDBRANCH 267 268
ENDBRANCH 266 267
ENDBRANCH 262 266
ENDBRANCH 261 262
ENDBRANCH 247 261
ENDBRANCH 244 245
ENDBRANCH 243 244
ENDBRANCH 239 243
ENDBRANCH 238 239
ENDBRANCH 221 238
ENDBRANCH 218 219
ENDBRANCH 217 218
ENDBRANCH 213 217
ENDBRANCH 212 213
ENDBRANCH 198 212
ENDBRANCH 195 196
ENDBRANCH 194 195
ENDBRANCH 190 194
ENDBRANCH 189 190
ENDBRANCH 175 189
ENDBRANCH 172 173
ENDBRANCH 171 172
ENDBRANCH 167 171
ENDBRANCH 166 167
ENDBRANCH 152 166
ENDBRANCH 149 150
ENDBRANCH 148 149
ENDBRANCH 144 148
ENDBRANCH 143 144
ENDBRANCH 128 143
ENDBRANCH 125 126
ENDBRANCH 124 125
ENDBRANCH 120 124
ENDBRANCH 119 120
ENDBRANCH 102 119
ENDBRANCH  99 100
ENDBRANCH  98  99
ENDBRANCH  94  98
ENDBRANCH  93  94
ENDBRANCH  79  93
ENDBRANCH  76  77
ENDBRANCH  75  76
ENDBRANCH  71  75
ENDBRANCH  70  71
ENDBRANCH  56  70
ENDBRANCH  53  54
ENDBRANCH  52  53
ENDBRANCH  48  52
ENDBRANCH  47  48
ENDBRANCH  32  47
ENDBRANCH  29  30
ENDBRANCH  28  29
ENDBRANCH  24  28
ENDBRANCH  23  24
ENDBRANCH   9  23
ENDBRANCH   6   7
ENDBRANCH   5   6
ENDBRANCH   1   5
BRANCH   1 937
ATOM    937  O3' U   B  38     -30.754  29.189  16.687  0.00  0.00    +0.000 OA
BRANCH 937 940
ATOM    938  C4' U   B  38     -31.425  28.537  14.450  0.00  0.00    +0.000 C 
ATOM    939  O4' U   B  38     -30.763  28.730  13.182  0.00  0.00    +0.000 OA
ATOM    940  C3' U   B  38     -30.923  29.655  15.347  0.00  0.00    +0.000 C 
ATOM    941  C2' U   B  38     -29.589  30.101  14.736  0.00  0.00    +0.000 C 
ATOM    942  C1' U   B  38     -29.508  29.325  13.416  0.00  0.00    +0.000 C 
BRANCH 942 943
ATOM    943  N1  U   B  38     -29.150  30.178  12.268  0.00  0.00    +0.000 N 
ATOM    944  C2  U   B  38     -27.821  30.174  11.873  0.00  0.00    +0.000 A 
ATOM    945  O2  U   B  38     -26.968  29.494  12.421  0.00  0.00    +0.000 OA
ATOM    946  N3  U   B  38     -27.521  30.997  10.816  0.00  0.00    +0.000 N 
ATOM    947  C4  U   B  38     -28.399  31.804  10.126  0.00  0.00    +0.000 A 
ATOM    948  O4  U   B  38     -27.973  32.486   9.200  0.00  0.00    +0.000 OA
ATOM    949  C5  U   B  38     -29.757  31.754  10.593  0.00  0.00    +0.000 A 
ATOM    950  C6  U   B  38     -30.075  30.964  11.627  0.00  0.00    +0.000 A 
ATOM    951  H   U   B  38     -26.582  31.012  10.521  0.00  0.00    +0.000 HD
ENDBRANCH 942 943
BRANCH 941 952
ATOM    952  O2' U   B  38     -28.468  29.787  15.532  0.00  0.00    +0.000 OA
ATOM    953  H   U   B  38     -28.428  28.828  15.669  0.00  0.00    +0.000 HD
ENDBRANCH 941 952
BRANCH 938 954
ATOM    954  C5' U   B  38     -32.921  28.509  14.226  0.00  0.00    +0.000 C 
BRANCH 954 955
ATOM    955  O5' U   B  38     -33.326  29.631  13.445  0.00  0.00    +0.000 OA
BRANCH 955 956
ATOM    956  P   U   B  38     -34.798  29.715  12.841  0.00  0.00    +0.000 P 
ATOM    957  OP2 U   B  38     -34.879  30.966  12.047  0.00  0.00    +0.000 OA
BRANCH 956 958
ATOM    958  OP1 U   B  38     -35.765  29.475  13.935  0.00  0.00    +0.000 OA
ATOM    959  H   U   B  38     -36.668  29.523  13.584  0.00  0.00    +0.000 HD
ENDBRANCH 956 958
BRANCH 956 960
ATOM    960  O3' A   B  37     -34.885  28.480  11.841  0.00  0.00    +0.000 OA
BRANCH 960 963
ATOM    961  C4' A   B  37     -35.064  27.891   9.479  0.00  0.00    +0.000 C 
ATOM    962  O4' A   B  37     -34.090  27.545   8.459  0.00  0.00    +0.000 OA
ATOM    963  C3' A   B  37     -34.233  28.523  10.579  0.00  0.00    +0.000 C 
ATOM    964  C2' A   B  37     -32.954  27.697  10.537  0.00  0.00    +0.000 C 
ATOM    965  C1' A   B  37     -32.803  27.456   9.035  0.00  0.00    +0.000 C 
BRANCH 965 966
ATOM    966  N9  A   B  37     -31.934  28.451   8.391  0.00  0.00    +0.000 N 
ATOM    967  C8  A   B  37     -32.286  29.623   7.778  0.00  0.00    +0.000 A 
ATOM    968  N7  A   B  37     -31.267  30.294   7.292  0.00  0.00    +0.000 NA
ATOM    969  C5  A   B  37     -30.171  29.508   7.612  0.00  0.00    +0.000 A 
ATOM    970  C6  A   B  37     -28.794  29.658   7.377  0.00  0.00    +0.000 A 
ATOM    971  N1  A   B  37     -27.971  28.693   7.825  0.00  0.00    +0.000 NA
ATOM    972  C2  A   B  37     -28.499  27.646   8.467  0.00  0.00    +0.000 A 
ATOM    973  N3  A   B  37     -29.776  27.388   8.747  0.00  0.00    +0.000 NA
ATOM    974  C4  A   B  37     -30.568  28.369   8.287  0.00  0.00    +0.000 A 
BRANCH 970 975
ATOM    975  N6  A   B  37     -28.263  30.709   6.736  0.00  0.00    +0.000 N 
ATOM    976  H   A   B  37     -28.847  31.427   6.400  0.00  0.00    +0.000 HD
ATOM    977  H   A   B  37     -27.289  30.763   6.602  0.00  0.00    +0.000 HD
ENDBRANCH 970 975
ENDBRANCH 965 966
BRANCH 964 978
ATOM    978  O2' A   B  37     -33.108  26.455  11.190  0.00  0.00    +0.000 OA
ATOM    979  H   A   B  37     -33.850  25.971  10.794  0.00  0.00    +0.000 HD
ENDBRANCH 964 978
BRANCH 961 980
ATOM    980  C5' A   B  37     -36.136  28.772   8.875  0.00  0.00    +0.000 C 
BRANCH 980 981
ATOM    981  O5' A   B  37     -35.583  30.001   8.425  0.00  0.00    +0.000 OA
BRANCH 981 982
ATOM    982  P   A   B  37     -36.450  31.013   7.560  0.00  0.00    +0.000 P 
ATOM    983  OP2 A   B  37     -35.613  32.207   7.281  0.00  0.00    +0.000 OA
BRANCH 982 984
ATOM    984  OP1 A   B  37     -37.765  31.176   8.223  0.00  0.00    +0.000 OA
ATOM    985  H   A   B  37     -38.312  31.792   7.710  0.00  0.00    +0.000 HD
ENDBRANCH 982 984
BRANCH 982 986
ATOM    986  O3' U   B  36     -36.689  30.213   6.183  0.00  0.00    +0.000 OA
BRANCH 986 989
ATOM    987  C4' U   B  36     -36.225  30.161   3.789  0.00  0.00    +0.000 C 
ATOM    988  O4' U   B  36     -35.132  29.629   2.989  0.00  0.00    +0.000 OA
ATOM    989  C3' U   B  36     -35.668  30.179   5.197  0.00  0.00    +0.000 C 
ATOM    990  C2' U   B  36     -34.835  28.898   5.230  0.00  0.00    +0.000 C 
ATOM    991  C1' U   B  36     -34.252  28.882   3.811  0.00  0.00    +0.000 C 
BRANCH 991 992
ATOM    992  N1  U   B  36     -32.898  29.477   3.738  0.00  0.00    +0.000 N 
ATOM    993  C2  U   B  36     -31.829  28.688   4.131  0.00  0.00    +0.000 A 
ATOM    994  O2  U   B  36     -31.959  27.542   4.532  0.00  0.00    +0.000 OA
ATOM    995  N3  U   B  36     -30.595  29.288   4.044  0.00  0.00    +0.000 N 
ATOM    996  C4  U   B  36     -30.322  30.569   3.611  0.00  0.00    +0.000 A 
ATOM    997  O4  U   B  36     -29.155  30.961   3.590  0.00  0.00    +0.000 OA
ATOM    998  C5  U   B  36     -31.475  31.322   3.220  0.00  0.00    +0.000 A 
ATOM    999  C6  U   B  36     -32.693  30.763   3.296  0.00  0.00    +0.000 A 
ATOM   1000  H   U   B  36     -29.822  28.744   4.321  0.00  0.00    +0.000 HD
ENDBRANCH 991 992
BRANCH 9901001
ATOM   1001  O2' U   B  36     -35.632  27.754   5.420  0.00  0.00    +0.000 OA
ATOM   1002  H   U   B  36     -36.307  27.711   4.724  0.00  0.00    +0.000 HD
ENDBRANCH 9901001
BRANCH 9871003
ATOM   1003  C5' U   B  36     -36.677  31.494   3.236  0.00  0.00    +0.000 C 
BRANCH10031004
ATOM   1004  O5' U   B  36     -35.609  32.439   3.236  0.00  0.00    +0.000 OA
BRANCH10041005
ATOM   1005  P   U   B  36     -35.794  33.890   2.609  0.00  0.00    +0.000 P 
ATOM   1006  OP2 U   B  36     -34.519  34.633   2.791  0.00  0.00    +0.000 OA
BRANCH10051007
ATOM   1007  OP1 U   B  36     -37.060  34.461   3.133  0.00  0.00    +0.000 OA
ATOM   1008  H   U   B  36     -37.193  35.348   2.763  0.00  0.00    +0.000 HD
ENDBRANCH10051007
BRANCH10051009
ATOM   1009  O3' A   B  35     -36.015  33.611   1.045  0.00  0.00    +0.000 OA
BRANCH10091012
ATOM   1010  C4' A   B  35     -34.986  33.565  -1.182  0.00  0.00    +0.000 C 
ATOM   1011  O4' A   B  35     -34.147  32.599  -1.869  0.00  0.00    +0.000 OA
ATOM   1012  C3' A   B  35     -34.956  33.092   0.260  0.00  0.00    +0.000 C 
ATOM   1013  C2' A   B  35     -35.023  31.585   0.083  0.00  0.00    +0.000 C 
ATOM   1014  C1' A   B  35     -34.120  31.389  -1.131  0.00  0.00    +0.000 C 
BRANCH10141015
ATOM   1015  N9  A   B  35     -32.737  31.089  -0.728  0.00  0.00    +0.000 N 
ATOM   1016  C8  A   B  35     -31.623  31.891  -0.784  0.00  0.00    +0.000 A 
ATOM   1017  N7  A   B  35     -30.536  31.306  -0.332  0.00  0.00    +0.000 NA
ATOM   1018  C5  A   B  35     -30.965  30.042   0.049  0.00  0.00    +0.000 A 
ATOM   1019  C6  A   B  35     -30.302  28.940   0.608  0.00  0.00    +0.000 A 
ATOM   1020  N6  A   B  35     -28.996  28.931   0.900  0.00  0.00    +0.000 N 
ATOM   1021  N1  A   B  35     -31.027  27.833   0.870  0.00  0.00    +0.000 NA
ATOM   1022  C2  A   B  35     -32.328  27.839   0.584  0.00  0.00    +0.000 A 
ATOM   1023  N3  A   B  35     -33.066  28.811   0.054  0.00  0.00    +0.000 NA
ATOM   1024  C4  A   B  35     -32.316  29.897  -0.191  0.00  0.00    +0.000 A 
ATOM   1025  H   A   B  35     -28.445  29.727   0.718  0.00  0.00    +0.000 HD
ATOM   1026  H   A   B  35     -28.586  28.129   1.297  0.00  0.00    +0.000 HD
ENDBRANCH10141015
BRANCH10131027
ATOM   1027  O2' A   B  35     -36.328  31.145  -0.229  0.00  0.00    +0.000 OA
ATOM   1028  H   A   B  35     -36.642  31.602  -1.025  0.00  0.00    +0.000 HD
ENDBRANCH10131027
BRANCH10101029
ATOM   1029  C5' A   B  35     -34.496  34.966  -1.455  0.00  0.00    +0.000 C 
BRANCH10291030
ATOM   1030  O5' A   B  35     -33.080  35.065  -1.327  0.00  0.00    +0.000 OA
BRANCH10301031
ATOM   1031  P   A   B  35     -32.286  36.278  -1.993  0.00  0.00    +0.000 P 
ATOM   1032  OP1 A   B  35     -33.094  37.506  -1.819  0.00  0.00    +0.000 OA
BRANCH10311033
ATOM   1033  OP2 A   B  35     -30.890  36.241  -1.484  0.00  0.00    +0.000 OA
ATOM   1034  H   A   B  35     -30.384  36.970  -1.875  0.00  0.00    +0.000 HD
ENDBRANCH10311033
BRANCH10311035
ATOM   1035  O3' A   B  34     -32.270  35.920  -3.551  0.00  0.00    +0.000 OA
BRANCH10351038
ATOM   1036  C4' A   B  34     -30.898  35.112  -5.417  0.00  0.00    +0.000 C 
ATOM   1037  O4' A   B  34     -30.545  33.787  -5.895  0.00  0.00    +0.000 OA
ATOM   1038  C3' A   B  34     -31.471  34.852  -4.037  0.00  0.00    +0.000 C 
ATOM   1039  C2' A   B  34     -32.249  33.569  -4.262  0.00  0.00    +0.000 C 
ATOM   1040  C1' A   B  34     -31.310  32.818  -5.205  0.00  0.00    +0.000 C 
BRANCH10401041
ATOM   1041  N9  A   B  34     -30.404  31.922  -4.469  0.00  0.00    +0.000 N 
ATOM   1042  C8  A   B  34     -29.102  32.137  -4.099  0.00  0.00    +0.000 A 
ATOM   1043  N7  A   B  34     -28.573  31.132  -3.440  0.00  0.00    +0.000 NA
ATOM   1044  C5  A   B  34     -29.597  30.197  -3.372  0.00  0.00    +0.000 A 
ATOM   1045  C6  A   B  34     -29.679  28.918  -2.803  0.00  0.00    +0.000 A 
ATOM   1046  N6  A   B  34     -28.665  28.327  -2.158  0.00  0.00    +0.000 N 
ATOM   1047  N1  A   B  34     -30.846  28.256  -2.909  0.00  0.00    +0.000 NA
ATOM   1048  C2  A   B  34     -31.862  28.842  -3.549  0.00  0.00    +0.000 A 
ATOM   1049  N3  A   B  34     -31.908  30.040  -4.129  0.00  0.00    +0.000 NA
ATOM   1050  C4  A   B  34     -30.729  30.674  -4.001  0.00  0.00    +0.000 A 
ATOM   1051  H   A   B  34     -27.802  28.791  -2.068  0.00  0.00    +0.000 HD
ATOM   1052  H   A   B  34     -28.783  27.428  -1.774  0.00  0.00    +0.000 HD
ENDBRANCH10401041
BRANCH10391053
ATOM   1053  O2' A   B  34     -33.478  33.803  -4.919  0.00  0.00    +0.000 OA
ATOM   1054  H   A   B  34     -33.314  34.263  -5.757  0.00  0.00    +0.000 HD
ENDBRANCH10391053
BRANCH10361055
ATOM   1055  C5' A   B  34     -29.694  36.021  -5.483  0.00  0.00    +0.000 C 
BRANCH10551056
ATOM   1056  O5' A   B  34     -28.646  35.555  -4.633  0.00  0.00    +0.000 OA
BRANCH10561057
ATOM   1057  P   A   B  34     -27.187  36.181  -4.730  0.00  0.00    +0.000 P 
ATOM   1058  OP1 A   B  34     -27.312  37.658  -4.742  0.00  0.00    +0.000 OA
BRANCH10571059
ATOM   1059  OP2 A   B  34     -26.342  35.527  -3.699  0.00  0.00    +0.000 OA
ATOM   1060  H   A   B  34     -25.444  35.892  -3.737  0.00  0.00    +0.000 HD
ENDBRANCH10571059
BRANCH10571061
ATOM   1061  O3' U   B  33     -26.690  35.714  -6.177  0.00  0.00    +0.000 OA
BRANCH10611064
ATOM   1062  C4' U   B  33     -25.127  34.264  -7.382  0.00  0.00    +0.000 C 
ATOM   1063  O4' U   B  33     -25.174  32.879  -7.817  0.00  0.00    +0.000 OA
ATOM   1064  C3' U   B  33     -26.270  34.374  -6.393  0.00  0.00    +0.000 C 
ATOM   1065  C2' U   B  33     -27.331  33.500  -7.047  0.00  0.00    +0.000 C 
ATOM   1066  C1' U   B  33     -26.473  32.362  -7.610  0.00  0.00    +0.000 C 
BRANCH10661067
ATOM   1067  N1  U   B  33     -26.388  31.214  -6.682  0.00  0.00    +0.000 N 
ATOM   1068  C2  U   B  33     -27.422  30.295  -6.719  0.00  0.00    +0.000 A 
ATOM   1069  O2  U   B  33     -28.374  30.396  -7.477  0.00  0.00    +0.000 OA
ATOM   1070  N3  U   B  33     -27.306  29.247  -5.834  0.00  0.00    +0.000 N 
ATOM   1071  C4  U   B  33     -26.282  29.032  -4.936  0.00  0.00    +0.000 A 
ATOM   1072  O4  U   B  33     -26.322  28.043  -4.203  0.00  0.00    +0.000 OA
ATOM   1073  C5  U   B  33     -25.254  30.025  -4.957  0.00  0.00    +0.000 A 
ATOM   1074  C6  U   B  33     -25.341  31.057  -5.808  0.00  0.00    +0.000 A 
ATOM   1075  H   U   B  33     -28.031  28.581  -5.843  0.00  0.00    +0.000 HD
ENDBRANCH10661067
BRANCH10651076
ATOM   1076  O2' U   B  33     -27.980  34.160  -8.116  0.00  0.00    +0.000 OA
ATOM   1077  H   U   B  33     -27.320  34.449  -8.766  0.00  0.00    +0.000 HD
ENDBRANCH10651076
BRANCH10621078
ATOM   1078  C5' U   B  33     -23.755  34.588  -6.839  0.00  0.00    +0.000 C 
BRANCH10781079
ATOM   1079  O5' U   B  33     -23.466  33.829  -5.670  0.00  0.00    +0.000 OA
BRANCH10791080
ATOM   1080  P   U   B  33     -21.997  33.794  -5.054  0.00  0.00    +0.000 P 
ATOM   1081  OP1 U   B  33     -21.529  35.188  -4.884  0.00  0.00    +0.000 OA
BRANCH10801082
ATOM   1082  OP2 U   B  33     -22.013  32.875  -3.888  0.00  0.00    +0.000 OA
ATOM   1083  H   U   B  33     -22.344  32.006  -4.165  0.00  0.00    +0.000 HD
ENDBRANCH10801082
BRANCH10801084
ATOM   1084  O3' A   B  32     -21.128  33.127  -6.216  0.00  0.00    +0.000 OA
BRANCH10841087
ATOM   1085  C4' A   B  32     -19.874  31.143  -6.900  0.00  0.00    +0.000 C 
ATOM   1086  O4' A   B  32     -20.241  29.905  -7.565  0.00  0.00    +0.000 OA
ATOM   1087  C3' A   B  32     -21.201  31.726  -6.458  0.00  0.00    +0.000 C 
ATOM   1088  C2' A   B  32     -22.110  31.361  -7.621  0.00  0.00    +0.000 C 
ATOM   1089  C1' A   B  32     -21.590  29.969  -7.979  0.00  0.00    +0.000 C 
BRANCH10891090
ATOM   1090  N9  A   B  32     -22.340  28.902  -7.297  0.00  0.00    +0.000 N 
ATOM   1091  C8  A   B  32     -22.002  28.227  -6.153  0.00  0.00    +0.000 A 
ATOM   1092  N7  A   B  32     -22.886  27.324  -5.797  0.00  0.00    +0.000 NA
ATOM   1093  C5  A   B  32     -23.869  27.411  -6.771  0.00  0.00    +0.000 A 
ATOM   1094  C6  A   B  32     -25.076  26.722  -6.966  0.00  0.00    +0.000 A 
ATOM   1095  N6  A   B  32     -25.519  25.760  -6.143  0.00  0.00    +0.000 N 
ATOM   1096  N1  A   B  32     -25.828  27.051  -8.034  0.00  0.00    +0.000 NA
ATOM   1097  C2  A   B  32     -25.388  28.013  -8.855  0.00  0.00    +0.000 A 
ATOM   1098  N3  A   B  32     -24.269  28.733  -8.779  0.00  0.00    +0.000 NA
ATOM   1099  C4  A   B  32     -23.545  28.381  -7.701  0.00  0.00    +0.000 A 
ATOM   1100  H   A   B  32     -26.374  25.309  -6.328  0.00  0.00    +0.000 HD
ATOM   1101  H   A   B  32     -24.989  25.505  -5.354  0.00  0.00    +0.000 HD
ENDBRANCH10891090
BRANCH10881102
ATOM   1102  O2' A   B  32     -21.926  32.225  -8.731  0.00  0.00    +0.000 OA
ATOM   1103  H   A   B  32     -20.994  32.212  -9.000  0.00  0.00    +0.000 HD
ENDBRANCH10881102
BRANCH10851104
ATOM   1104  C5' A   B  32     -18.881  30.859  -5.796  0.00  0.00    +0.000 C 
BRANCH11041105
ATOM   1105  O5' A   B  32     -19.453  30.028  -4.794  0.00  0.00    +0.000 OA
BRANCH11051106
ATOM   1106  P   A   B  32     -18.551  29.388  -3.646  0.00  0.00    +0.000 P 
ATOM   1107  OP1 A   B  32     -17.735  30.468  -3.040  0.00  0.00    +0.000 OA
BRANCH11061108
ATOM   1108  OP2 A   B  32     -19.429  28.555  -2.785  0.00  0.00    +0.000 OA
ATOM   1109  H   A   B  32     -19.890  27.900  -3.332  0.00  0.00    +0.000 HD
ENDBRANCH11061108
BRANCH11061110
ATOM   1110  O3' A   B  31     -17.568  28.434  -4.446  0.00  0.00    +0.000 OA
BRANCH11101113
ATOM   1111  C4' A   B  31     -16.941  26.136  -4.992  0.00  0.00    +0.000 C 
ATOM   1112  O4' A   B  31     -17.417  25.172  -5.970  0.00  0.00    +0.000 OA
ATOM   1113  C3' A   B  31     -18.030  27.189  -4.957  0.00  0.00    +0.000 C 
ATOM   1114  C2' A   B  31     -18.453  27.254  -6.417  0.00  0.00    +0.000 C 
ATOM   1115  C1' A   B  31     -18.366  25.783  -6.820  0.00  0.00    +0.000 C 
BRANCH11151116
ATOM   1116  N9  A   B  31     -19.651  25.084  -6.668  0.00  0.00    +0.000 N 
ATOM   1117  C8  A   B  31     -20.062  24.277  -5.637  0.00  0.00    +0.000 A 
ATOM   1118  N7  A   B  31     -21.272  23.793  -5.798  0.00  0.00    +0.000 NA
ATOM   1119  C5  A   B  31     -21.685  24.316  -7.013  0.00  0.00    +0.000 A 
ATOM   1120  C6  A   B  31     -22.875  24.182  -7.747  0.00  0.00    +0.000 A 
ATOM   1121  N1  A   B  31     -22.967  24.838  -8.922  0.00  0.00    +0.000 NA
ATOM   1122  C2  A   B  31     -21.929  25.576  -9.330  0.00  0.00    +0.000 A 
ATOM   1123  N3  A   B  31     -20.754  25.778  -8.728  0.00  0.00    +0.000 NA
ATOM   1124  C4  A   B  31     -20.696  25.113  -7.560  0.00  0.00    +0.000 A 
BRANCH11201125
ATOM   1125  N6  A   B  31     -23.913  23.445  -7.338  0.00  0.00    +0.000 N 
ATOM   1126  H   A   B  31     -24.724  23.386  -7.893  0.00  0.00    +0.000 HD
ATOM   1127  H   A   B  31     -23.866  22.961  -6.482  0.00  0.00    +0.000 HD
ENDBRANCH11201125
ENDBRANCH11151116
BRANCH11141128
ATOM   1128  O2' A   B  31     -17.538  28.004  -7.199  0.00  0.00    +0.000 OA
ATOM   1129  H   A   B  31     -16.650  27.625  -7.109  0.00  0.00    +0.000 HD
ENDBRANCH11141128
BRANCH11111130
ATOM   1130  C5' A   B  31     -16.657  25.441  -3.678  0.00  0.00    +0.000 C 
BRANCH11301131
ATOM   1131  O5' A   B  31     -17.834  24.837  -3.157  0.00  0.00    +0.000 OA
BRANCH11311132
ATOM   1132  P   A   B  31     -17.757  23.815  -1.938  0.00  0.00    +0.000 P 
ATOM   1133  OP2 A   B  31     -19.134  23.339  -1.656  0.00  0.00    +0.000 OA
BRANCH11321134
ATOM   1134  OP1 A   B  31     -16.958  24.441  -0.858  0.00  0.00    +0.000 OA
ATOM   1135  H   A   B  31     -16.088  24.694  -1.205  0.00  0.00    +0.000 HD
ENDBRANCH11321134
BRANCH11321136
ATOM   1136  O3' A   B  30     -16.919  22.600  -2.518  0.00  0.00    +0.000 OA
BRANCH11361139
ATOM   1137  C4' A   B  30     -16.909  20.288  -3.307  0.00  0.00    +0.000 C 
ATOM   1138  O4' A   B  30     -17.235  19.660  -4.576  0.00  0.00    +0.000 OA
ATOM   1139  C3' A   B  30     -17.513  21.673  -3.419  0.00  0.00    +0.000 C 
ATOM   1140  C2' A   B  30     -17.265  22.007  -4.883  0.00  0.00    +0.000 C 
ATOM   1141  C1' A   B  30     -17.509  20.651  -5.543  0.00  0.00    +0.000 C 
BRANCH11411142
ATOM   1142  N9  A   B  30     -18.899  20.490  -6.000  0.00  0.00    +0.000 N 
ATOM   1143  C8  A   B  30     -19.921  19.812  -5.384  0.00  0.00    +0.000 A 
ATOM   1144  N7  A   B  30     -21.050  19.848  -6.050  0.00  0.00    +0.000 NA
ATOM   1145  C5  A   B  30     -20.755  20.598  -7.177  0.00  0.00    +0.000 A 
ATOM   1146  C6  A   B  30     -21.524  21.001  -8.276  0.00  0.00    +0.000 A 
ATOM   1147  N1  A   B  30     -20.926  21.746  -9.226  0.00  0.00    +0.000 NA
ATOM   1148  C2  A   B  30     -19.637  22.060  -9.077  0.00  0.00    +0.000 A 
ATOM   1149  N3  A   B  30     -18.801  21.739  -8.088  0.00  0.00    +0.000 NA
ATOM   1150  C4  A   B  30     -19.430  21.000  -7.157  0.00  0.00    +0.000 A 
BRANCH11461151
ATOM   1151  N6  A   B  30     -22.817  20.687  -8.423  0.00  0.00    +0.000 N 
ATOM   1152  H   A   B  30     -23.312  20.996  -9.216  0.00  0.00    +0.000 HD
ATOM   1153  H   A   B  30     -23.273  20.147  -7.738  0.00  0.00    +0.000 HD
ENDBRANCH11461151
ENDBRANCH11411142
BRANCH11401154
ATOM   1154  O2' A   B  30     -15.925  22.404  -5.114  0.00  0.00    +0.000 OA
ATOM   1155  H   A   B  30     -15.324  21.707  -4.807  0.00  0.00    +0.000 HD
ENDBRANCH11401154
BRANCH11371156
ATOM   1156  C5' A   B  30     -17.419  19.438  -2.165  0.00  0.00    +0.000 C 
BRANCH11561157
ATOM   1157  O5' A   B  30     -18.825  19.248  -2.260  0.00  0.00    +0.000 OA
BRANCH11571158
ATOM   1158  P   A   B  30     -19.562  18.139  -1.383  0.00  0.00    +0.000 P 
ATOM   1159  OP2 A   B  30     -21.004  18.169  -1.728  0.00  0.00    +0.000 OA
BRANCH11581160
ATOM   1160  OP1 A   B  30     -19.139  18.309   0.028  0.00  0.00    +0.000 OA
ATOM   1161  H   A   B  30     -18.172  18.265   0.083  0.00  0.00    +0.000 HD
ENDBRANCH11581160
BRANCH11581162
ATOM   1162  O3' A   B  29     -18.953  16.773  -1.905  0.00  0.00    +0.000 OA
BRANCH11621165
ATOM   1163  C4' A   B  29     -19.289  14.725  -3.202  0.00  0.00    +0.000 C 
ATOM   1164  O4' A   B  29     -19.235  14.417  -4.621  0.00  0.00    +0.000 OA
ATOM   1165  C3' A   B  29     -19.350  16.240  -3.162  0.00  0.00    +0.000 C 
ATOM   1166  C2' A   B  29     -18.420  16.619  -4.306  0.00  0.00    +0.000 C 
ATOM   1167  C1' A   B  29     -18.757  15.539  -5.332  0.00  0.00    +0.000 C 
BRANCH11671168
ATOM   1168  N9  A   B  29     -19.795  15.977  -6.280  0.00  0.00    +0.000 N 
ATOM   1169  C8  A   B  29     -21.134  15.681  -6.267  0.00  0.00    +0.000 A 
ATOM   1170  N7  A   B  29     -21.799  16.222  -7.260  0.00  0.00    +0.000 NA
ATOM   1171  C5  A   B  29     -20.835  16.922  -7.972  0.00  0.00    +0.000 A 
ATOM   1172  C6  A   B  29     -20.896  17.709  -9.129  0.00  0.00    +0.000 A 
ATOM   1173  N1  A   B  29     -19.754  18.266  -9.576  0.00  0.00    +0.000 NA
ATOM   1174  C2  A   B  29     -18.624  18.040  -8.898  0.00  0.00    +0.000 A 
ATOM   1175  N3  A   B  29     -18.435  17.315  -7.793  0.00  0.00    +0.000 NA
ATOM   1176  C4  A   B  29     -19.594  16.777  -7.377  0.00  0.00    +0.000 A 
BRANCH11721177
ATOM   1177  N6  A   B  29     -22.028  17.936  -9.806  0.00  0.00    +0.000 N 
ATOM   1178  H   A   B  29     -22.014  18.498 -10.614  0.00  0.00    +0.000 HD
ATOM   1179  H   A   B  29     -22.875  17.541  -9.496  0.00  0.00    +0.000 HD
ENDBRANCH11721177
ENDBRANCH11671168
BRANCH11661180
ATOM   1180  O2' A   B  29     -17.058  16.500  -3.937  0.00  0.00    +0.000 OA
ATOM   1181  H   A   B  29     -16.885  15.597  -3.627  0.00  0.00    +0.000 HD
ENDBRANCH11661180
BRANCH11631182
ATOM   1182  C5' A   B  29     -20.453  14.001  -2.562  0.00  0.00    +0.000 C 
BRANCH11821183
ATOM   1183  O5' A   B  29     -21.689  14.409  -3.139  0.00  0.00    +0.000 OA
BRANCH11831184
ATOM   1184  P   A   B  29     -23.024  13.583  -2.872  0.00  0.00    +0.000 P 
ATOM   1185  OP2 A   B  29     -24.122  14.233  -3.623  0.00  0.00    +0.000 OA
BRANCH11841186
ATOM   1186  OP1 A   B  29     -23.156  13.379  -1.409  0.00  0.00    +0.000 OA
ATOM   1187  H   A   B  29     -23.965  12.877  -1.224  0.00  0.00    +0.000 HD
ENDBRANCH11841186
BRANCH11841188
ATOM   1188  O3' U   B  28     -22.720  12.170  -3.534  0.00  0.00    +0.000 OA
BRANCH11881191
ATOM   1189  C4' U   B  28     -23.211  10.630  -5.368  0.00  0.00    +0.000 C 
ATOM   1190  O4' U   B  28     -22.738  10.517  -6.740  0.00  0.00    +0.000 OA
ATOM   1191  C3' U   B  28     -22.765  12.015  -4.946  0.00  0.00    +0.000 C 
ATOM   1192  C2' U   B  28     -21.401  12.125  -5.619  0.00  0.00    +0.000 C 
ATOM   1193  C1' U   B  28     -21.668  11.418  -6.953  0.00  0.00    +0.000 C 
BRANCH11931194
ATOM   1194  N1  U   B  28     -22.041  12.364  -8.034  0.00  0.00    +0.000 N 
ATOM   1195  C2  U   B  28     -21.013  13.015  -8.691  0.00  0.00    +0.000 A 
ATOM   1196  O2  U   B  28     -19.839  12.842  -8.417  0.00  0.00    +0.000 OA
ATOM   1197  N3  U   B  28     -21.409  13.880  -9.685  0.00  0.00    +0.000 N 
ATOM   1198  C4  U   B  28     -22.699  14.153 -10.077  0.00  0.00    +0.000 A 
ATOM   1199  O4  U   B  28     -22.896  14.958 -10.987  0.00  0.00    +0.000 OA
ATOM   1200  C5  U   B  28     -23.705  13.442  -9.351  0.00  0.00    +0.000 A 
ATOM   1201  C6  U   B  28     -23.349  12.595  -8.378  0.00  0.00    +0.000 A 
ATOM   1202  H   U   B  28     -20.693  14.354 -10.167  0.00  0.00    +0.000 HD
ENDBRANCH11931194
BRANCH11921203
ATOM   1203  O2' U   B  28     -20.407  11.412  -4.912  0.00  0.00    +0.000 OA
ATOM   1204  H   U   B  28     -20.678  10.485  -4.819  0.00  0.00    +0.000 HD
ENDBRANCH11921203
BRANCH11891205
ATOM   1205  C5' U   B  28     -24.700  10.374  -5.314  0.00  0.00    +0.000 C 
BRANCH12051206
ATOM   1206  O5' U   B  28     -25.417  11.354  -6.048  0.00  0.00    +0.000 OA
BRANCH12061207
ATOM   1207  P   U   B  28     -26.951  11.140  -6.418  0.00  0.00    +0.000 P 
ATOM   1208  OP2 U   B  28     -27.378  12.273  -7.276  0.00  0.00    +0.000 OA
BRANCH12071209
ATOM   1209  OP1 U   B  28     -27.691  10.842  -5.168  0.00  0.00    +0.000 OA
ATOM   1210  H   U   B  28     -28.630  10.708  -5.372  0.00  0.00    +0.000 HD
ENDBRANCH12071209
BRANCH12071211
ATOM   1211  O3' U   B  27     -26.928   9.819  -7.301  0.00  0.00    +0.000 OA
BRANCH12111214
ATOM   1212  C4' U   B  27     -27.262   8.871  -9.523  0.00  0.00    +0.000 C 
ATOM   1213  O4' U   B  27     -26.406   8.711 -10.690  0.00  0.00    +0.000 OA
ATOM   1214  C3' U   B  27     -26.517   9.869  -8.660  0.00  0.00    +0.000 C 
ATOM   1215  C2' U   B  27     -25.066   9.456  -8.877  0.00  0.00    +0.000 C 
ATOM   1216  C1' U   B  27     -25.078   9.080 -10.366  0.00  0.00    +0.000 C 
BRANCH12161217
ATOM   1217  N1  U   B  27     -24.663  10.199 -11.246  0.00  0.00    +0.000 N 
ATOM   1218  C2  U   B  27     -23.304  10.432 -11.388  0.00  0.00    +0.000 A 
ATOM   1219  O2  U   B  27     -22.454   9.768 -10.825  0.00  0.00    +0.000 OA
ATOM   1220  N3  U   B  27     -22.973  11.480 -12.219  0.00  0.00    +0.000 N 
ATOM   1221  C4  U   B  27     -23.842  12.297 -12.906  0.00  0.00    +0.000 A 
ATOM   1222  O4  U   B  27     -23.392  13.196 -13.615  0.00  0.00    +0.000 OA
ATOM   1223  C5  U   B  27     -25.227  11.994 -12.708  0.00  0.00    +0.000 A 
ATOM   1224  C6  U   B  27     -25.578  10.981 -11.905  0.00  0.00    +0.000 A 
ATOM   1225  H   U   B  27     -22.013  11.664 -12.334  0.00  0.00    +0.000 HD
ENDBRANCH12161217
BRANCH12151226
ATOM   1226  O2' U   B  27     -24.725   8.315  -8.118  0.00  0.00    +0.000 OA
ATOM   1227  H   U   B  27     -25.331   7.589  -8.335  0.00  0.00    +0.000 HD
ENDBRANCH12151226
BRANCH12121228
ATOM   1228  C5' U   B  27     -28.653   9.285  -9.956  0.00  0.00    +0.000 C 
BRANCH12281229
ATOM   1229  O5' U   B  27     -28.631  10.537 -10.629  0.00  0.00    +0.000 OA
BRANCH12291230
ATOM   1230  P   U   B  27     -29.903  11.060 -11.430  0.00  0.00    +0.000 P 
ATOM   1231  OP2 U   B  27     -29.533  12.333 -12.095  0.00  0.00    +0.000 OA
BRANCH12301232
ATOM   1232  OP1 U   B  27     -31.071  11.020 -10.516  0.00  0.00    +0.000 OA
ATOM   1233  H   U   B  27     -31.859  11.335 -10.985  0.00  0.00    +0.000 HD
ENDBRANCH12301232
BRANCH12301234
ATOM   1234  O3' U   B  26     -30.115   9.945 -12.546  0.00  0.00    +0.000 OA
BRANCH12341237
ATOM   1235  C4' U   B  26     -29.950   9.349 -14.909  0.00  0.00    +0.000 C 
ATOM   1236  O4' U   B  26     -28.857   8.903 -15.761  0.00  0.00    +0.000 OA
ATOM   1237  C3' U   B  26     -29.254   9.884 -13.676  0.00  0.00    +0.000 C 
ATOM   1238  C2' U   B  26     -28.100   8.902 -13.510  0.00  0.00    +0.000 C 
ATOM   1239  C1' U   B  26     -27.709   8.648 -14.973  0.00  0.00    +0.000 C 
BRANCH12391240
ATOM   1240  N1  U   B  26     -26.605   9.528 -15.428  0.00  0.00    +0.000 N 
ATOM   1241  C2  U   B  26     -25.313   9.160 -15.091  0.00  0.00    +0.000 A 
ATOM   1242  O2  U   B  26     -25.054   8.158 -14.446  0.00  0.00    +0.000 OA
ATOM   1243  N3  U   B  26     -24.326  10.008 -15.539  0.00  0.00    +0.000 N 
ATOM   1244  C4  U   B  26     -24.496  11.161 -16.272  0.00  0.00    +0.000 A 
ATOM   1245  O4  U   B  26     -23.507  11.819 -16.599  0.00  0.00    +0.000 OA
ATOM   1246  C5  U   B  26     -25.859  11.474 -16.579  0.00  0.00    +0.000 A 
ATOM   1247  C6  U   B  26     -26.841  10.668 -16.157  0.00  0.00    +0.000 A 
ATOM   1248  H   U   B  26     -23.400   9.764 -15.311  0.00  0.00    +0.000 HD
ENDBRANCH12391240
BRANCH12381249
ATOM   1249  O2' U   B  26     -28.526   7.684 -12.930  0.00  0.00    +0.000 OA
ATOM   1250  H   U   B  26     -29.238   7.302 -13.467  0.00  0.00    +0.000 HD
ENDBRANCH12381249
BRANCH12351251
ATOM   1251  C5' U   B  26     -30.820  10.334 -15.659  0.00  0.00    +0.000 C 
BRANCH12511252
ATOM   1252  O5' U   B  26     -30.076  11.475 -16.066  0.00  0.00    +0.000 OA
BRANCH12521253
ATOM   1253  P   U   B  26     -30.655  12.491 -17.147  0.00  0.00    +0.000 P 
ATOM   1254  OP2 U   B  26     -29.616  13.521 -17.416  0.00  0.00    +0.000 OA
BRANCH12531255
ATOM   1255  OP1 U   B  26     -32.008  12.908 -16.707  0.00  0.00    +0.000 OA
ATOM   1256  H   U   B  26     -32.381  13.529 -17.352  0.00  0.00    +0.000 HD
ENDBRANCH12531255
BRANCH12531257
ATOM   1257  O3' U   B  25     -30.818  11.582 -18.443  0.00  0.00    +0.000 OA
BRANCH12571260
ATOM   1258  C4' U   B  25     -30.005  11.035 -20.683  0.00  0.00    +0.000 C 
ATOM   1259  O4' U   B  25     -28.907  10.222 -21.184  0.00  0.00    +0.000 OA
ATOM   1260  C3' U   B  25     -29.680  11.218 -19.216  0.00  0.00    +0.000 C 
ATOM   1261  C2' U   B  25     -29.103   9.858 -18.847  0.00  0.00    +0.000 C 
ATOM   1262  C1' U   B  25     -28.312   9.511 -20.115  0.00  0.00    +0.000 C 
BRANCH12621263
ATOM   1263  N1  U   B  25     -26.884   9.896 -20.015  0.00  0.00    +0.000 N 
ATOM   1264  C2  U   B  25     -26.031   9.018 -19.368  0.00  0.00    +0.000 A 
ATOM   1265  O2  U   B  25     -26.403   7.960 -18.891  0.00  0.00    +0.000 OA
ATOM   1266  N3  U   B  25     -24.716   9.420 -19.301  0.00  0.00    +0.000 N 
ATOM   1267  C4  U   B  25     -24.180  10.585 -19.801  0.00  0.00    +0.000 A 
ATOM   1268  O4  U   B  25     -22.975  10.804 -19.660  0.00  0.00    +0.000 OA
ATOM   1269  C5  U   B  25     -25.123  11.440 -20.453  0.00  0.00    +0.000 A 
ATOM   1270  C6  U   B  25     -26.410  11.076 -20.535  0.00  0.00    +0.000 A 
ATOM   1271  H   U   B  25     -24.092   8.809 -18.847  0.00  0.00    +0.000 HD
ENDBRANCH12621263
BRANCH12611272
ATOM   1272  O2' U   B  25     -30.117   8.889 -18.661  0.00  0.00    +0.000 OA
ATOM   1273  H   U   B  25     -30.661   8.832 -19.462  0.00  0.00    +0.000 HD
ENDBRANCH12611272
BRANCH12581274
ATOM   1274  C5' U   B  25     -30.121  12.302 -21.499  0.00  0.00    +0.000 C 
BRANCH12741275
ATOM   1275  O5' U   B  25     -28.941  13.092 -21.399  0.00  0.00    +0.000 OA
BRANCH12751276
ATOM   1276  P   U   B  25     -28.663  14.283 -22.422  0.00  0.00    +0.000 P 
ATOM   1277  OP1 U   B  25     -29.863  15.157 -22.444  0.00  0.00    +0.000 OA
BRANCH12761278
ATOM   1278  OP2 U   B  25     -27.331  14.863 -22.110  0.00  0.00    +0.000 OA
ATOM   1279  H   U   B  25     -27.144  15.591 -22.723  0.00  0.00    +0.000 HD
ENDBRANCH12761278
BRANCH12761280
ATOM   1280  O3' U   B  24     -28.569  13.533 -23.815  0.00  0.00    +0.000 OA
BRANCH12801283
ATOM   1281  C4' U   B  24     -27.135  12.883 -25.679  0.00  0.00    +0.000 C 
ATOM   1282  O4' U   B  24     -26.232  11.771 -25.915  0.00  0.00    +0.000 OA
ATOM   1283  C3' U   B  24     -27.382  12.840 -24.188  0.00  0.00    +0.000 C 
ATOM   1284  C2' U   B  24     -27.438  11.344 -23.916  0.00  0.00    +0.000 C 
ATOM   1285  C1' U   B  24     -26.368  10.818 -24.878  0.00  0.00    +0.000 C 
BRANCH12851286
ATOM   1286  N1  U   B  24     -25.051  10.627 -24.226  0.00  0.00    +0.000 N 
ATOM   1287  C2  U   B  24     -24.862   9.464 -23.498  0.00  0.00    +0.000 A 
ATOM   1288  O2  U   B  24     -25.722   8.612 -23.377  0.00  0.00    +0.000 OA
ATOM   1289  N3  U   B  24     -23.623   9.334 -22.915  0.00  0.00    +0.000 N 
ATOM   1290  C4  U   B  24     -22.578  10.226 -22.981  0.00  0.00    +0.000 A 
ATOM   1291  O4  U   B  24     -21.524   9.968 -22.401  0.00  0.00    +0.000 OA
ATOM   1292  C5  U   B  24     -22.849  11.400 -23.754  0.00  0.00    +0.000 A 
ATOM   1293  C6  U   B  24     -24.048  11.555 -24.335  0.00  0.00    +0.000 A 
ATOM   1294  H   U   B  24     -23.467   8.513 -22.394  0.00  0.00    +0.000 HD
ENDBRANCH12851286
BRANCH12841295
ATOM   1295  O2' U   B  24     -28.689  10.789 -24.273  0.00  0.00    +0.000 OA
ATOM   1296  H   U   B  24     -28.873  10.979 -25.206  0.00  0.00    +0.000 HD
ENDBRANCH12841295
BRANCH12811297
ATOM   1297  C5' U   B  24     -26.528  14.158 -26.209  0.00  0.00    +0.000 C 
BRANCH12971298
ATOM   1298  O5' U   B  24     -25.303  14.469 -25.545  0.00  0.00    +0.000 OA
BRANCH12981299
ATOM   1299  P   U   B  24     -24.412  15.703 -26.006  0.00  0.00    +0.000 P 
ATOM   1300  OP1 U   B  24     -25.286  16.894 -26.074  0.00  0.00    +0.000 OA
BRANCH12991301
ATOM   1301  OP2 U   B  24     -23.189  15.732 -25.160  0.00  0.00    +0.000 OA
ATOM   1302  H   U   B  24     -22.630  16.479 -25.425  0.00  0.00    +0.000 HD
ENDBRANCH12991301
BRANCH12991303
ATOM   1303  O3' U   B  23     -23.992  15.337 -27.478  0.00  0.00    +0.000 OA
BRANCH13031306
ATOM   1304  C4' U   B  23     -22.260  14.544 -29.014  0.00  0.00    +0.000 C 
ATOM   1305  O4' U   B  23     -21.690  13.245 -29.294  0.00  0.00    +0.000 OA
ATOM   1306  C3' U   B  23     -22.998  14.348 -27.709  0.00  0.00    +0.000 C 
ATOM   1307  C2' U   B  23     -23.570  12.952 -27.877  0.00  0.00    +0.000 C 
ATOM   1308  C1' U   B  23     -22.429  12.250 -28.608  0.00  0.00    +0.000 C 
BRANCH13081309
ATOM   1309  N1  U   B  23     -21.526  11.525 -27.685  0.00  0.00    +0.000 N 
ATOM   1310  C2  U   B  23     -21.973  10.322 -27.158  0.00  0.00    +0.000 A 
ATOM   1311  O2  U   B  23     -23.065   9.847 -27.418  0.00  0.00    +0.000 OA
ATOM   1312  N3  U   B  23     -21.097   9.696 -26.310  0.00  0.00    +0.000 N 
ATOM   1313  C4  U   B  23     -19.841  10.132 -25.941  0.00  0.00    +0.000 A 
ATOM   1314  O4  U   B  23     -19.173   9.453 -25.167  0.00  0.00    +0.000 OA
ATOM   1315  C5  U   B  23     -19.447  11.374 -26.529  0.00  0.00    +0.000 A 
ATOM   1316  C6  U   B  23     -20.288  12.014 -27.365  0.00  0.00    +0.000 A 
ATOM   1317  H   U   B  23     -21.397   8.842 -25.922  0.00  0.00    +0.000 HD
ENDBRANCH13081309
BRANCH13071318
ATOM   1318  O2' U   B  23     -24.721  12.946 -28.690  0.00  0.00    +0.000 OA
ATOM   1319  H   U   B  23     -24.511  13.341 -29.551  0.00  0.00    +0.000 HD
ENDBRANCH13071318
BRANCH13041320
ATOM   1320  C5' U   B  23     -21.184  15.592 -29.029  0.00  0.00    +0.000 C 
BRANCH13201321
ATOM   1321  O5' U   B  23     -20.236  15.390 -27.995  0.00  0.00    +0.000 OA
BRANCH13211322
ATOM   1322  P   U   B  23     -19.269  16.569 -27.535  0.00  0.00    +0.000 P 
ATOM   1323  OP2 U   B  23     -18.468  16.993 -28.703  0.00  0.00    +0.000 OA
BRANCH13221324
ATOM   1324  OP1 U   B  23     -18.570  16.138 -26.291  0.00  0.00    +0.000 OA
ATOM   1325  H   U   B  23     -17.958  15.415 -26.498  0.00  0.00    +0.000 HD
ENDBRANCH13221324
BRANCH13221326
ATOM   1326  O3' C   B  22     -20.274  17.766 -27.159  0.00  0.00    +0.000 OA
BRANCH13261329
ATOM   1327  C4' C   B  22     -20.131  20.091 -26.469  0.00  0.00    +0.000 C 
ATOM   1328  O4' C   B  22     -20.403  21.353 -27.135  0.00  0.00    +0.000 OA
ATOM   1329  C3' C   B  22     -20.048  19.092 -27.602  0.00  0.00    +0.000 C 
ATOM   1330  C2' C   B  22     -21.126  19.598 -28.557  0.00  0.00    +0.000 C 
ATOM   1331  C1' C   B  22     -20.984  21.113 -28.400  0.00  0.00    +0.000 C 
BRANCH13311332
ATOM   1332  N1  C   B  22     -20.130  21.728 -29.442  0.00  0.00    +0.000 N 
ATOM   1333  C2  C   B  22     -20.698  22.017 -30.683  0.00  0.00    +0.000 A 
ATOM   1334  O2  C   B  22     -21.899  21.756 -30.875  0.00  0.00    +0.000 OA
ATOM   1335  N3  C   B  22     -19.929  22.574 -31.648  0.00  0.00    +0.000 NA
ATOM   1336  C4  C   B  22     -18.644  22.842 -31.412  0.00  0.00    +0.000 A 
ATOM   1337  N4  C   B  22     -17.926  23.390 -32.391  0.00  0.00    +0.000 N 
ATOM   1338  C5  C   B  22     -18.042  22.557 -30.157  0.00  0.00    +0.000 A 
ATOM   1339  C6  C   B  22     -18.812  22.006 -29.211  0.00  0.00    +0.000 A 
ATOM   1340  H   C   B  22     -18.346  23.586 -33.259  0.00  0.00    +0.000 HD
ATOM   1341  H   C   B  22     -16.975  23.599 -32.246  0.00  0.00    +0.000 HD
ENDBRANCH13311332
BRANCH13301342
ATOM   1342  O2' C   B  22     -22.424  19.214 -28.148  0.00  0.00    +0.000 OA
ATOM   1343  H   C   B  22     -22.586  19.533 -27.246  0.00  0.00    +0.000 HD
ENDBRANCH13301342
BRANCH13271344
ATOM   1344  C5' C   B  22     -18.896  20.220 -25.608  0.00  0.00    +0.000 C 
BRANCH13441345
ATOM   1345  O5' C   B  22     -17.765  20.612 -26.375  0.00  0.00    +0.000 OA
BRANCH13451346
ATOM   1346  P   C   B  22     -16.431  21.133 -25.678  0.00  0.00    +0.000 P 
ATOM   1347  OP2 C   B  22     -15.491  21.548 -26.752  0.00  0.00    +0.000 OA
BRANCH13461348
ATOM   1348  OP1 C   B  22     -16.000  20.128 -24.674  0.00  0.00    +0.000 OA
ATOM   1349  H   C   B  22     -15.696  19.327 -25.128  0.00  0.00    +0.000 HD
ENDBRANCH13461348
BRANCH13461350
ATOM   1350  O3' A   B  21     -16.936  22.467 -24.880  0.00  0.00    +0.000 OA
BRANCH13501353
ATOM   1351  C4' A   B  21     -16.898  24.910 -24.798  0.00  0.00    +0.000 C 
ATOM   1352  O4' A   B  21     -17.699  25.945 -25.430  0.00  0.00    +0.000 OA
ATOM   1353  C3' A   B  21     -17.234  23.662 -25.589  0.00  0.00    +0.000 C 
ATOM   1354  C2' A   B  21     -18.722  23.847 -25.855  0.00  0.00    +0.000 C 
ATOM   1355  C1' A   B  21     -18.791  25.352 -26.108  0.00  0.00    +0.000 C 
BRANCH13551356
ATOM   1356  N9  A   B  21     -18.698  25.673 -27.539  0.00  0.00    +0.000 N 
ATOM   1357  C8  A   B  21     -17.610  26.121 -28.241  0.00  0.00    +0.000 A 
ATOM   1358  N7  A   B  21     -17.851  26.314 -29.517  0.00  0.00    +0.000 NA
ATOM   1359  C5  A   B  21     -19.187  25.967 -29.660  0.00  0.00    +0.000 A 
ATOM   1360  C6  A   B  21     -20.046  25.952 -30.766  0.00  0.00    +0.000 A 
ATOM   1361  N1  A   B  21     -21.320  25.555 -30.571  0.00  0.00    +0.000 NA
ATOM   1362  C2  A   B  21     -21.698  25.197 -29.338  0.00  0.00    +0.000 A 
ATOM   1363  N3  A   B  21     -20.983  25.173 -28.216  0.00  0.00    +0.000 NA
ATOM   1364  C4  A   B  21     -19.719  25.571 -28.449  0.00  0.00    +0.000 A 
BRANCH13601365
ATOM   1365  N6  A   B  21     -19.668  26.308 -31.998  0.00  0.00    +0.000 N 
ATOM   1366  H   A   B  21     -20.315  26.278 -32.739  0.00  0.00    +0.000 HD
ATOM   1367  H   A   B  21     -18.743  26.600 -32.164  0.00  0.00    +0.000 HD
ENDBRANCH13601365
ENDBRANCH13551356
BRANCH13541368
ATOM   1368  O2' A   B  21     -19.508  23.539 -24.717  0.00  0.00    +0.000 OA
ATOM   1369  H   A   B  21     -19.218  24.082 -23.967  0.00  0.00    +0.000 HD
ENDBRANCH13541368
BRANCH13511370
ATOM   1370  C5' A   B  21     -15.442  25.319 -24.786  0.00  0.00    +0.000 C 
BRANCH13701371
ATOM   1371  O5' A   B  21     -14.969  25.579 -26.104  0.00  0.00    +0.000 OA
BRANCH13711372
ATOM   1372  P   A   B  21     -13.569  26.309 -26.333  0.00  0.00    +0.000 P 
ATOM   1373  OP2 A   B  21     -13.369  26.446 -27.799  0.00  0.00    +0.000 OA
BRANCH13721374
ATOM   1374  OP1 A   B  21     -12.546  25.613 -25.514  0.00  0.00    +0.000 OA
ATOM   1375  H   A   B  21     -12.389  24.727 -25.877  0.00  0.00    +0.000 HD
ENDBRANCH13721374
BRANCH13721376
ATOM   1376  O3' A   B  20     -13.800  27.769 -25.700  0.00  0.00    +0.000 OA
BRANCH13761379
ATOM   1377  C4' A   B  20     -14.167  30.156 -26.099  0.00  0.00    +0.000 C 
ATOM   1378  O4' A   B  20     -15.341  30.945 -26.442  0.00  0.00    +0.000 OA
ATOM   1379  C3' A   B  20     -14.602  28.731 -26.372  0.00  0.00    +0.000 C 
ATOM   1380  C2' A   B  20     -16.048  28.750 -25.901  0.00  0.00    +0.000 C 
ATOM   1381  C1' A   B  20     -16.495  30.126 -26.382  0.00  0.00    +0.000 C 
BRANCH13811382
ATOM   1382  N9  A   B  20     -17.104  30.064 -27.719  0.00  0.00    +0.000 N 
ATOM   1383  C8  A   B  20     -16.538  30.362 -28.933  0.00  0.00    +0.000 A 
ATOM   1384  N7  A   B  20     -17.353  30.198 -29.949  0.00  0.00    +0.000 NA
ATOM   1385  C5  A   B  20     -18.532  29.762 -29.362  0.00  0.00    +0.000 A 
ATOM   1386  C6  A   B  20     -19.781  29.410 -29.892  0.00  0.00    +0.000 A 
ATOM   1387  N1  A   B  20     -20.745  29.017 -29.036  0.00  0.00    +0.000 NA
ATOM   1388  C2  A   B  20     -20.464  28.980 -27.728  0.00  0.00    +0.000 A 
ATOM   1389  N3  A   B  20     -19.328  29.291 -27.104  0.00  0.00    +0.000 NA
ATOM   1390  C4  A   B  20     -18.392  29.676 -27.988  0.00  0.00    +0.000 A 
BRANCH13861391
ATOM   1391  N6  A   B  20     -20.062  29.444 -31.201  0.00  0.00    +0.000 N 
ATOM   1392  H   A   B  20     -19.374  29.728 -31.845  0.00  0.00    +0.000 HD
ATOM   1393  H   A   B  20     -20.957  29.185 -31.519  0.00  0.00    +0.000 HD
ENDBRANCH13861391
ENDBRANCH13811382
BRANCH13801394
ATOM   1394  O2' A   B  20     -16.148  28.700 -24.490  0.00  0.00    +0.000 OA
ATOM   1395  H   A   B  20     -15.646  29.435 -24.104  0.00  0.00    +0.000 HD
ENDBRANCH13801394
BRANCH13771396
ATOM   1396  C5' A   B  20     -12.971  30.647 -26.877  0.00  0.00    +0.000 C 
BRANCH13961397
ATOM   1397  O5' A   B  20     -13.197  30.553 -28.282  0.00  0.00    +0.000 OA
BRANCH13971398
ATOM   1398  P   A   B  20     -12.225  31.289 -29.309  0.00  0.00    +0.000 P 
ATOM   1399  OP2 A   B  20     -12.720  31.008 -30.681  0.00  0.00    +0.000 OA
BRANCH13981400
ATOM   1400  OP1 A   B  20     -10.829  30.941 -28.945  0.00  0.00    +0.000 OA
ATOM   1401  H   A   B  20     -10.217  31.378 -29.557  0.00  0.00    +0.000 HD
ENDBRANCH13981400
BRANCH13981402
ATOM   1402  O3' A   B  19     -12.459  32.853 -28.989  0.00  0.00    +0.000 OA
BRANCH14021405
ATOM   1403  C4' A   B  19     -13.397  34.979 -29.740  0.00  0.00    +0.000 C 
ATOM   1404  O4' A   B  19     -14.723  35.573 -29.668  0.00  0.00    +0.000 OA
ATOM   1405  C3' A   B  19     -13.638  33.516 -29.431  0.00  0.00    +0.000 C 
ATOM   1406  C2' A   B  19     -14.727  33.589 -28.370  0.00  0.00    +0.000 C 
ATOM   1407  C1' A   B  19     -15.572  34.744 -28.897  0.00  0.00    +0.000 C 
BRANCH14071408
ATOM   1408  N9  A   B  19     -16.676  34.282 -29.751  0.00  0.00    +0.000 N 
ATOM   1409  C8  A   B  19     -16.753  34.290 -31.121  0.00  0.00    +0.000 A 
ATOM   1410  N7  A   B  19     -17.880  33.807 -31.588  0.00  0.00    +0.000 NA
ATOM   1411  C5  A   B  19     -18.590  33.457 -30.447  0.00  0.00    +0.000 A 
ATOM   1412  C6  A   B  19     -19.860  32.889 -30.258  0.00  0.00    +0.000 A 
ATOM   1413  N1  A   B  19     -20.271  32.667 -28.992  0.00  0.00    +0.000 NA
ATOM   1414  C2  A   B  19     -19.453  32.997 -27.984  0.00  0.00    +0.000 A 
ATOM   1415  N3  A   B  19     -18.235  33.537 -28.032  0.00  0.00    +0.000 NA
ATOM   1416  C4  A   B  19     -17.859  33.744 -29.308  0.00  0.00    +0.000 A 
BRANCH14121417
ATOM   1417  N6  A   B  19     -20.678  32.560 -31.263  0.00  0.00    +0.000 N 
ATOM   1418  H   A   B  19     -20.399  32.713 -32.195  0.00  0.00    +0.000 HD
ATOM   1419  H   A   B  19     -21.559  32.165 -31.071  0.00  0.00    +0.000 HD
ENDBRANCH14121417
ENDBRANCH14071408
BRANCH14061420
ATOM   1420  O2' A   B  19     -14.206  33.940 -27.100  0.00  0.00    +0.000 OA
ATOM   1421  H   A   B  19     -13.727  34.780 -27.168  0.00  0.00    +0.000 HD
ENDBRANCH14061420
BRANCH14031422
ATOM   1422  C5' A   B  19     -12.776  35.270 -31.084  0.00  0.00    +0.000 C 
BRANCH14221423
ATOM   1423  O5' A   B  19     -13.512  34.660 -32.141  0.00  0.00    +0.000 OA
BRANCH14231424
ATOM   1424  P   A   B  19     -13.049  34.821 -33.660  0.00  0.00    +0.000 P 
ATOM   1425  OP2 A   B  19     -14.000  34.064 -34.514  0.00  0.00    +0.000 OA
BRANCH14241426
ATOM   1426  OP1 A   B  19     -11.599  34.517 -33.730  0.00  0.00    +0.000 OA
ATOM   1427  H   A   B  19     -11.293  34.608 -34.646  0.00  0.00    +0.000 HD
ENDBRANCH14241426
BRANCH14241428
ATOM   1428  O3' G   B  18     -13.256  36.375 -33.945  0.00  0.00    +0.000 OA
BRANCH14281431
ATOM   1429  C4' G   B  18     -14.557  38.109 -35.074  0.00  0.00    +0.000 C 
ATOM   1430  O4' G   B  18     -15.768  38.832 -34.727  0.00  0.00    +0.000 OA
ATOM   1431  C3' G   B  18     -14.556  36.924 -34.124  0.00  0.00    +0.000 C 
ATOM   1432  C2' G   B  18     -15.142  37.527 -32.861  0.00  0.00    +0.000 C 
ATOM   1433  C1' G   B  18     -16.206  38.444 -33.443  0.00  0.00    +0.000 C 
BRANCH14331434
ATOM   1434  N9  G   B  18     -17.501  37.756 -33.585  0.00  0.00    +0.000 N 
ATOM   1435  C8  G   B  18     -18.143  37.413 -34.750  0.00  0.00    +0.000 A 
ATOM   1436  N7  G   B  18     -19.273  36.802 -34.553  0.00  0.00    +0.000 NA
ATOM   1437  C5  G   B  18     -19.392  36.738 -33.175  0.00  0.00    +0.000 A 
ATOM   1438  C6  G   B  18     -20.416  36.187 -32.367  0.00  0.00    +0.000 A 
ATOM   1439  O6  G   B  18     -21.459  35.625 -32.718  0.00  0.00    +0.000 OA
ATOM   1440  N1  G   B  18     -20.138  36.335 -31.012  0.00  0.00    +0.000 NA
ATOM   1441  C2  G   B  18     -19.017  36.938 -30.501  0.00  0.00    +0.000 A 
ATOM   1442  N2  G   B  18     -18.919  36.992 -29.163  0.00  0.00    +0.000 N 
ATOM   1443  N3  G   B  18     -18.053  37.462 -31.242  0.00  0.00    +0.000 N 
ATOM   1444  C4  G   B  18     -18.306  37.324 -32.562  0.00  0.00    +0.000 A 
ATOM   1445  H   G   B  18     -18.135  37.414 -28.744  0.00  0.00    +0.000 HD
ATOM   1446  H   G   B  18     -19.631  36.610 -28.601  0.00  0.00    +0.000 HD
ATOM   1447  H   G   B  18     -17.250  37.899 -30.876  0.00  0.00    +0.000 HD
ENDBRANCH14331434
BRANCH14321448
ATOM   1448  O2' G   B  18     -14.196  38.312 -32.162  0.00  0.00    +0.000 OA
ATOM   1449  H   G   B  18     -13.849  39.000 -32.751  0.00  0.00    +0.000 HD
ENDBRANCH14321448
BRANCH14291450
ATOM   1450  C5' G   B  18     -14.561  37.778 -36.546  0.00  0.00    +0.000 C 
BRANCH14501451
ATOM   1451  O5' G   B  18     -15.329  38.726 -37.284  0.00  0.00    +0.000 OA
BRANCH14511452
ATOM   1452  P   G   B  18     -14.842  39.275 -38.694  0.00  0.00    +0.000 P 
ATOM   1453  OP2 G   B  18     -16.047  39.641 -39.462  0.00  0.00    +0.000 OA
BRANCH14521454
ATOM   1454  OP1 G   B  18     -13.874  38.305 -39.267  0.00  0.00    +0.000 OA
ATOM   1455  H   G   B  18     -13.567  38.626 -40.129  0.00  0.00    +0.000 HD
ENDBRANCH14521454
BRANCH14521456
ATOM   1456  O3' C   B  17     -14.027  40.600 -38.335  0.00  0.00    +0.000 OA
BRANCH14561459
ATOM   1457  C4' C   B  17     -14.684  42.911 -37.908  0.00  0.00    +0.000 C 
ATOM   1458  O4' C   B  17     -14.583  43.782 -36.749  0.00  0.00    +0.000 OA
ATOM   1459  C3' C   B  17     -14.471  41.523 -37.339  0.00  0.00    +0.000 C 
ATOM   1460  C2' C   B  17     -13.425  41.768 -36.255  0.00  0.00    +0.000 C 
ATOM   1461  C1' C   B  17     -13.850  43.138 -35.724  0.00  0.00    +0.000 C 
BRANCH14611462
ATOM   1462  N1  C   B  17     -14.683  43.049 -34.511  0.00  0.00    +0.000 N 
ATOM   1463  C2  C   B  17     -14.055  42.833 -33.278  0.00  0.00    +0.000 A 
ATOM   1464  O2  C   B  17     -12.823  42.726 -33.235  0.00  0.00    +0.000 OA
ATOM   1465  N3  C   B  17     -14.811  42.749 -32.155  0.00  0.00    +0.000 NA
ATOM   1466  C4  C   B  17     -16.136  42.870 -32.231  0.00  0.00    +0.000 A 
ATOM   1467  N4  C   B  17     -16.839  42.782 -31.099  0.00  0.00    +0.000 N 
ATOM   1468  C5  C   B  17     -16.796  43.091 -33.472  0.00  0.00    +0.000 A 
ATOM   1469  C6  C   B  17     -16.038  43.174 -34.576  0.00  0.00    +0.000 A 
ATOM   1470  H   C   B  17     -17.820  42.867 -31.121  0.00  0.00    +0.000 HD
ATOM   1471  H   C   B  17     -16.377  42.632 -30.243  0.00  0.00    +0.000 HD
ENDBRANCH14611462
BRANCH14601472
ATOM   1472  O2' C   B  17     -12.118  41.866 -36.789  0.00  0.00    +0.000 OA
ATOM   1473  H   C   B  17     -12.093  42.569 -37.457  0.00  0.00    +0.000 HD
ENDBRANCH14601472
BRANCH14571474
ATOM   1474  C5' C   B  17     -16.007  43.145 -38.603  0.00  0.00    +0.000 C 
BRANCH14741475
ATOM   1475  O5' C   B  17     -17.102  42.914 -37.720  0.00  0.00    +0.000 OA
BRANCH14751476
ATOM   1476  P   C   B  17     -18.595  43.266 -38.156  0.00  0.00    +0.000 P 
ATOM   1477  OP1 C   B  17     -18.829  42.697 -39.498  0.00  0.00    +0.000 OA
BRANCH14761478
ATOM   1478  OP2 C   B  17     -19.496  42.901 -37.033  0.00  0.00    +0.000 OA
ATOM   1479  H   C   B  17     -20.413  43.106 -37.274  0.00  0.00    +0.000 HD
ENDBRANCH14761478
BRANCH14761480
ATOM   1480  O3' C   B  16     -18.578  44.868 -38.283  0.00  0.00    +0.000 OA
BRANCH14801483
ATOM   1481  C4' C   B  16     -19.162  46.990 -37.221  0.00  0.00    +0.000 C 
ATOM   1482  O4' C   B  16     -18.464  47.888 -36.317  0.00  0.00    +0.000 OA
ATOM   1483  C3' C   B  16     -18.370  45.701 -37.151  0.00  0.00    +0.000 C 
ATOM   1484  C2' C   B  16     -16.945  46.208 -37.030  0.00  0.00    +0.000 C 
ATOM   1485  C1' C   B  16     -17.134  47.431 -36.136  0.00  0.00    +0.000 C 
BRANCH14851486
ATOM   1486  N1  C   B  16     -16.898  47.140 -34.711  0.00  0.00    +0.000 N 
ATOM   1487  C2  C   B  16     -15.585  47.035 -34.250  0.00  0.00    +0.000 A 
ATOM   1488  O2  C   B  16     -14.644  47.200 -35.042  0.00  0.00    +0.000 OA
ATOM   1489  N3  C   B  16     -15.361  46.763 -32.940  0.00  0.00    +0.000 NA
ATOM   1490  C4  C   B  16     -16.390  46.597 -32.111  0.00  0.00    +0.000 A 
ATOM   1491  N4  C   B  16     -16.123  46.329 -30.830  0.00  0.00    +0.000 N 
ATOM   1492  C5  C   B  16     -17.737  46.699 -32.557  0.00  0.00    +0.000 A 
ATOM   1493  C6  C   B  16     -17.945  46.971 -33.855  0.00  0.00    +0.000 A 
ATOM   1494  H   C   B  16     -15.189  46.259 -30.526  0.00  0.00    +0.000 HD
ATOM   1495  H   C   B  16     -16.860  46.201 -30.190  0.00  0.00    +0.000 HD
ENDBRANCH14851486
BRANCH14841496
ATOM   1496  O2' C   B  16     -16.418  46.615 -38.272  0.00  0.00    +0.000 OA
ATOM   1497  H   C   B  16     -16.992  47.293 -38.660  0.00  0.00    +0.000 HD
ENDBRANCH14841496
BRANCH14811498
ATOM   1498  C5' C   B  16     -20.612  46.906 -36.825  0.00  0.00    +0.000 C 
BRANCH14981499
ATOM   1499  O5' C   B  16     -20.725  46.422 -35.507  0.00  0.00    +0.000 OA
BRANCH14991500
ATOM   1500  P   C   B  16     -21.880  46.920 -34.527  0.00  0.00    +0.000 P 
ATOM   1501  OP2 C   B  16     -22.878  47.693 -35.320  0.00  0.00    +0.000 OA
BRANCH15001502
ATOM   1502  OP1 C   B  16     -21.260  47.563 -33.340  0.00  0.00    +0.000 OA
ATOM   1503  H   C   B  16     -20.888  48.422 -33.595  0.00  0.00    +0.000 HD
ENDBRANCH15001502
BRANCH15001504
ATOM   1504  O3' U   B  15     -22.464  45.582 -34.144  0.00  0.00    +0.000 OA
BRANCH15041507
ATOM   1505  C4' U   B  15     -21.959  44.319 -32.158  0.00  0.00    +0.000 C 
ATOM   1506  O4' U   B  15     -22.471  42.983 -32.423  0.00  0.00    +0.000 OA
ATOM   1507  C3' U   B  15     -22.925  45.287 -32.836  0.00  0.00    +0.000 C 
ATOM   1508  C2' U   B  15     -24.194  44.473 -32.943  0.00  0.00    +0.000 C 
ATOM   1509  C1' U   B  15     -23.636  43.085 -33.218  0.00  0.00    +0.000 C 
BRANCH15091510
ATOM   1510  N1  U   B  15     -24.564  42.003 -32.859  0.00  0.00    +0.000 N 
ATOM   1511  C2  U   B  15     -25.045  41.203 -33.878  0.00  0.00    +0.000 A 
ATOM   1512  O2  U   B  15     -24.726  41.348 -35.048  0.00  0.00    +0.000 OA
ATOM   1513  N3  U   B  15     -25.918  40.218 -33.480  0.00  0.00    +0.000 N 
ATOM   1514  C4  U   B  15     -26.345  39.961 -32.196  0.00  0.00    +0.000 A 
ATOM   1515  O4  U   B  15     -27.132  39.041 -32.001  0.00  0.00    +0.000 OA
ATOM   1516  C5  U   B  15     -25.802  40.833 -31.201  0.00  0.00    +0.000 A 
ATOM   1517  C6  U   B  15     -24.950  41.803 -31.557  0.00  0.00    +0.000 A 
ATOM   1518  H   U   B  15     -26.276  39.635 -34.188  0.00  0.00    +0.000 HD
ENDBRANCH15091510
BRANCH15081519
ATOM   1519  O2' U   B  15     -25.091  44.884 -33.977  0.00  0.00    +0.000 OA
ATOM   1520  H   U   B  15     -24.638  44.841 -34.834  0.00  0.00    +0.000 HD
ENDBRANCH15081519
BRANCH15051521
ATOM   1521  C5' U   B  15     -21.812  44.512 -30.664  0.00  0.00    +0.000 C 
BRANCH15211522
ATOM   1522  O5' U   B  15     -23.027  44.217 -29.982  0.00  0.00    +0.000 OA
BRANCH15221523
ATOM   1523  P   U   B  15     -23.118  44.335 -28.396  0.00  0.00    +0.000 P 
ATOM   1524  OP1 U   B  15     -22.637  45.675 -27.996  0.00  0.00    +0.000 OA
BRANCH15231525
ATOM   1525  OP2 U   B  15     -24.476  43.890 -27.990  0.00  0.00    +0.000 OA
ATOM   1526  H   U   B  15     -25.134  44.529 -28.307  0.00  0.00    +0.000 HD
ENDBRANCH15231525
BRANCH15231527
ATOM   1527  O3' A   B  14     -22.067  43.252 -27.852  0.00  0.00    +0.000 OA
BRANCH15271530
ATOM   1528  C4' A   B  14     -21.823  41.019 -26.896  0.00  0.00    +0.000 C 
ATOM   1529  O4' A   B  14     -21.638  39.704 -27.475  0.00  0.00    +0.000 OA
ATOM   1530  C3' A   B  14     -22.265  41.867 -28.071  0.00  0.00    +0.000 C 
ATOM   1531  C2' A   B  14     -21.408  41.315 -29.198  0.00  0.00    +0.000 C 
ATOM   1532  C1' A   B  14     -21.397  39.829 -28.865  0.00  0.00    +0.000 C 
BRANCH15321533
ATOM   1533  N9  A   B  14     -22.419  39.080 -29.600  0.00  0.00    +0.000 N 
ATOM   1534  C8  A   B  14     -23.573  38.507 -29.120  0.00  0.00    +0.000 A 
ATOM   1535  N7  A   B  14     -24.280  37.898 -30.043  0.00  0.00    +0.000 NA
ATOM   1536  C5  A   B  14     -23.541  38.085 -31.205  0.00  0.00    +0.000 A 
ATOM   1537  C6  A   B  14     -23.747  37.683 -32.531  0.00  0.00    +0.000 A 
ATOM   1538  N1  A   B  14     -22.824  38.029 -33.448  0.00  0.00    +0.000 NA
ATOM   1539  C2  A   B  14     -21.762  38.734 -33.049  0.00  0.00    +0.000 A 
ATOM   1540  N3  A   B  14     -21.455  39.167 -31.831  0.00  0.00    +0.000 NA
ATOM   1541  C4  A   B  14     -22.396  38.806 -30.945  0.00  0.00    +0.000 A 
BRANCH15371542
ATOM   1542  N6  A   B  14     -24.811  36.979 -32.932  0.00  0.00    +0.000 N 
ATOM   1543  H   A   B  14     -24.904  36.724 -33.878  0.00  0.00    +0.000 HD
ATOM   1544  H   A   B  14     -25.501  36.716 -32.281  0.00  0.00    +0.000 HD
ENDBRANCH15371542
ENDBRANCH15321533
BRANCH15311545
ATOM   1545  O2' A   B  14     -20.091  41.816 -29.151  0.00  0.00    +0.000 OA
ATOM   1546  H   A   B  14     -19.700  41.617 -28.286  0.00  0.00    +0.000 HD
ENDBRANCH15311545
BRANCH15281547
ATOM   1547  C5' A   B  14     -22.778  40.941 -25.728  0.00  0.00    +0.000 C 
BRANCH15471548
ATOM   1548  O5' A   B  14     -23.990  40.283 -26.094  0.00  0.00    +0.000 OA
BRANCH15481549
ATOM   1549  P   A   B  14     -25.051  39.861 -24.982  0.00  0.00    +0.000 P 
ATOM   1550  OP2 A   B  14     -26.228  39.290 -25.683  0.00  0.00    +0.000 OA
BRANCH15491551
ATOM   1551  OP1 A   B  14     -25.234  40.999 -24.056  0.00  0.00    +0.000 OA
ATOM   1552  H   A   B  14     -25.673  41.728 -24.522  0.00  0.00    +0.000 HD
ENDBRANCH15491551
BRANCH15491553
ATOM   1553  O3' C   B  13     -24.324  38.691 -24.158  0.00  0.00    +0.000 OA
BRANCH15531556
ATOM   1554  C4' C   B  13     -24.064  36.265 -23.869  0.00  0.00    +0.000 C 
ATOM   1555  O4' C   B  13     -23.389  35.238 -24.646  0.00  0.00    +0.000 OA
ATOM   1556  C3' C   B  13     -24.062  37.455 -24.801  0.00  0.00    +0.000 C 
ATOM   1557  C2' C   B  13     -22.661  37.367 -25.390  0.00  0.00    +0.000 C 
ATOM   1558  C1' C   B  13     -22.526  35.858 -25.584  0.00  0.00    +0.000 C 
BRANCH15581559
ATOM   1559  N1  C   B  13     -22.900  35.452 -26.957  0.00  0.00    +0.000 N 
ATOM   1560  C2  C   B  13     -21.953  35.642 -27.971  0.00  0.00    +0.000 A 
ATOM   1561  O2  C   B  13     -20.845  36.110 -27.680  0.00  0.00    +0.000 OA
ATOM   1562  N3  C   B  13     -22.264  35.303 -29.245  0.00  0.00    +0.000 NA
ATOM   1563  C4  C   B  13     -23.466  34.803 -29.525  0.00  0.00    +0.000 A 
ATOM   1564  N4  C   B  13     -23.727  34.488 -30.793  0.00  0.00    +0.000 N 
ATOM   1565  C5  C   B  13     -24.449  34.601 -28.514  0.00  0.00    +0.000 A 
ATOM   1566  C6  C   B  13     -24.128  34.939 -27.258  0.00  0.00    +0.000 A 
ATOM   1567  H   C   B  13     -23.043  34.630 -31.486  0.00  0.00    +0.000 HD
ATOM   1568  H   C   B  13     -24.604  34.113 -31.037  0.00  0.00    +0.000 HD
ENDBRANCH15581559
BRANCH15571569
ATOM   1569  O2' C   B  13     -21.680  37.812 -24.483  0.00  0.00    +0.000 OA
ATOM   1570  H   C   B  13     -21.748  37.305 -23.659  0.00  0.00    +0.000 HD
ENDBRANCH15571569
BRANCH15541571
ATOM   1571  C5' C   B  13     -25.407  35.770 -23.391  0.00  0.00    +0.000 C 
BRANCH15711572
ATOM   1572  O5' C   B  13     -26.234  35.356 -24.471  0.00  0.00    +0.000 OA
BRANCH15721573
ATOM   1573  P   C   B  13     -27.562  34.525 -24.198  0.00  0.00    +0.000 P 
ATOM   1574  OP2 C   B  13     -28.227  34.295 -25.505  0.00  0.00    +0.000 OA
BRANCH15731575
ATOM   1575  OP1 C   B  13     -28.306  35.184 -23.100  0.00  0.00    +0.000 OA
ATOM   1576  H   C   B  13     -28.649  36.037 -23.408  0.00  0.00    +0.000 HD
ENDBRANCH15731575
BRANCH15731577
ATOM   1577  O3' U   B  12     -27.019  33.121 -23.630  0.00  0.00    +0.000 OA
BRANCH15771580
ATOM   1578  C4' U   B  12     -26.623  30.764 -24.180  0.00  0.00    +0.000 C 
ATOM   1579  O4' U   B  12     -25.555  30.064 -24.875  0.00  0.00    +0.000 OA
ATOM   1580  C3' U   B  12     -26.371  32.219 -24.515  0.00  0.00    +0.000 C 
ATOM   1581  C2' U   B  12     -24.851  32.292 -24.461  0.00  0.00    +0.000 C 
ATOM   1582  C1' U   B  12     -24.472  30.953 -25.095  0.00  0.00    +0.000 C 
BRANCH15821583
ATOM   1583  N1  U   B  12     -24.237  31.078 -26.551  0.00  0.00    +0.000 N 
ATOM   1584  C2  U   B  12     -22.980  31.496 -26.950  0.00  0.00    +0.000 A 
ATOM   1585  O2  U   B  12     -22.087  31.749 -26.164  0.00  0.00    +0.000 OA
ATOM   1586  N3  U   B  12     -22.805  31.608 -28.310  0.00  0.00    +0.000 N 
ATOM   1587  C4  U   B  12     -23.740  31.350 -29.287  0.00  0.00    +0.000 A 
ATOM   1588  O4  U   B  12     -23.432  31.502 -30.471  0.00  0.00    +0.000 OA
ATOM   1589  C5  U   B  12     -25.014  30.925 -28.795  0.00  0.00    +0.000 A 
ATOM   1590  C6  U   B  12     -25.213  30.806 -27.476  0.00  0.00    +0.000 A 
ATOM   1591  H   U   B  12     -21.918  31.904 -28.617  0.00  0.00    +0.000 HD
ENDBRANCH15821583
BRANCH15811592
ATOM   1592  O2' U   B  12     -24.371  32.330 -23.132  0.00  0.00    +0.000 OA
ATOM   1593  H   U   B  12     -24.703  31.559 -22.646  0.00  0.00    +0.000 HD
ENDBRANCH15811592
BRANCH15781594
ATOM   1594  C5' U   B  12     -27.961  30.208 -24.595  0.00  0.00    +0.000 C 
BRANCH15941595
ATOM   1595  O5' U   B  12     -28.237  30.490 -25.961  0.00  0.00    +0.000 OA
BRANCH15951596
ATOM   1596  P   U   B  12     -29.487  29.830 -26.689  0.00  0.00    +0.000 P 
ATOM   1597  OP2 U   B  12     -29.492  30.291 -28.100  0.00  0.00    +0.000 OA
BRANCH15961598
ATOM   1598  OP1 U   B  12     -30.686  30.043 -25.842  0.00  0.00    +0.000 OA
ATOM   1599  H   U   B  12     -31.460  29.646 -26.271  0.00  0.00    +0.000 HD
ENDBRANCH15961598
BRANCH15961600
ATOM   1600  O3' U   B  11     -29.132  28.267 -26.643  0.00  0.00    +0.000 OA
BRANCH16001603
ATOM   1601  C4' U   B  11     -28.527  26.350 -28.028  0.00  0.00    +0.000 C 
ATOM   1602  O4' U   B  11     -27.264  25.813 -28.505  0.00  0.00    +0.000 OA
ATOM   1603  C3' U   B  11     -28.169  27.741 -27.549  0.00  0.00    +0.000 C 
ATOM   1604  C2' U   B  11     -26.796  27.522 -26.925  0.00  0.00    +0.000 C 
ATOM   1605  C1' U   B  11     -26.189  26.505 -27.894  0.00  0.00    +0.000 C 
BRANCH16051606
ATOM   1606  N1  U   B  11     -25.369  27.143 -28.949  0.00  0.00    +0.000 N 
ATOM   1607  C2  U   B  11     -24.068  27.483 -28.623  0.00  0.00    +0.000 A 
ATOM   1608  O2  U   B  11     -23.587  27.283 -27.522  0.00  0.00    +0.000 OA
ATOM   1609  N3  U   B  11     -23.346  28.071 -29.636  0.00  0.00    +0.000 N 
ATOM   1610  C4  U   B  11     -23.784  28.346 -30.911  0.00  0.00    +0.000 A 
ATOM   1611  O4  U   B  11     -23.013  28.878 -31.712  0.00  0.00    +0.000 OA
ATOM   1612  C5  U   B  11     -25.137  27.965 -31.170  0.00  0.00    +0.000 A 
ATOM   1613  C6  U   B  11     -25.864  27.391 -30.205  0.00  0.00    +0.000 A 
ATOM   1614  H   U   B  11     -22.417  28.322 -29.426  0.00  0.00    +0.000 HD
ENDBRANCH16051606
BRANCH16041615
ATOM   1615  O2' U   B  11     -26.893  26.940 -25.640  0.00  0.00    +0.000 OA
ATOM   1616  H   U   B  11     -27.391  26.110 -25.698  0.00  0.00    +0.000 HD
ENDBRANCH16041615
BRANCH16011617
ATOM   1617  C5' U   B  11     -29.562  26.283 -29.122  0.00  0.00    +0.000 C 
BRANCH16171618
ATOM   1618  O5' U   B  11     -29.247  27.176 -30.187  0.00  0.00    +0.000 OA
BRANCH16181619
ATOM   1619  P   U   B  11     -30.112  27.199 -31.521  0.00  0.00    +0.000 P 
ATOM   1620  OP2 U   B  11     -29.496  28.176 -32.454  0.00  0.00    +0.000 OA
BRANCH16191621
ATOM   1621  OP1 U   B  11     -31.539  27.342 -31.142  0.00  0.00    +0.000 OA
ATOM   1622  H   U   B  11     -32.086  27.358 -31.943  0.00  0.00    +0.000 HD
ENDBRANCH16191621
BRANCH16191623
ATOM   1623  O3' U   B  10     -29.897  25.713 -32.090  0.00  0.00    +0.000 OA
BRANCH16231626
ATOM   1624  C4' U   B  10     -28.878  24.410 -33.880  0.00  0.00    +0.000 C 
ATOM   1625  O4' U   B  10     -27.568  23.814 -34.071  0.00  0.00    +0.000 OA
ATOM   1626  C3' U   B  10     -28.673  25.373 -32.734  0.00  0.00    +0.000 C 
ATOM   1627  C2' U   B  10     -27.706  24.611 -31.840  0.00  0.00    +0.000 C 
ATOM   1628  C1' U   B  10     -26.810  23.933 -32.880  0.00  0.00    +0.000 C 
BRANCH16281629
ATOM   1629  N1  U   B  10     -25.583  24.708 -33.168  0.00  0.00    +0.000 N 
ATOM   1630  C2  U   B  10     -24.542  24.622 -32.259  0.00  0.00    +0.000 A 
ATOM   1631  O2  U   B  10     -24.597  23.948 -31.246  0.00  0.00    +0.000 OA
ATOM   1632  N3  U   B  10     -23.425  25.358 -32.576  0.00  0.00    +0.000 N 
ATOM   1633  C4  U   B  10     -23.245  26.153 -33.686  0.00  0.00    +0.000 A 
ATOM   1634  O4  U   B  10     -22.178  26.754 -33.832  0.00  0.00    +0.000 OA
ATOM   1635  C5  U   B  10     -24.361  26.189 -34.577  0.00  0.00    +0.000 A 
ATOM   1636  C6  U   B  10     -25.464  25.481 -34.296  0.00  0.00    +0.000 A 
ATOM   1637  H   U   B  10     -22.673  25.312 -31.942  0.00  0.00    +0.000 HD
ENDBRANCH16281629
BRANCH16271638
ATOM   1638  O2' U   B  10     -28.367  23.618 -31.080  0.00  0.00    +0.000 OA
ATOM   1639  H   U   B  10     -28.843  23.018 -31.676  0.00  0.00    +0.000 HD
ENDBRANCH16271638
BRANCH16241640
ATOM   1640  C5' U   B  10     -29.359  25.025 -35.171  0.00  0.00    +0.000 C 
BRANCH16401641
ATOM   1641  O5' U   B  10     -28.534  26.124 -35.557  0.00  0.00    +0.000 OA
BRANCH16411642
ATOM   1642  P   U   B  10     -28.716  26.832 -36.967  0.00  0.00    +0.000 P 
ATOM   1643  OP2 U   B  10     -27.647  27.853 -37.112  0.00  0.00    +0.000 OA
BRANCH16421644
ATOM   1644  OP1 U   B  10     -30.140  27.239 -37.092  0.00  0.00    +0.000 OA
ATOM   1645  H   U   B  10     -30.278  27.675 -37.947  0.00  0.00    +0.000 HD
ENDBRANCH16421644
BRANCH16421646
ATOM   1646  O3' A   B   9     -28.446  25.652 -37.992  0.00  0.00    +0.000 OA
BRANCH16461649
ATOM   1647  C4' A   B   9     -26.928  24.722 -39.663  0.00  0.00    +0.000 C 
ATOM   1648  O4' A   B   9     -25.776  23.838 -39.596  0.00  0.00    +0.000 OA
ATOM   1649  C3' A   B   9     -27.128  25.162 -38.229  0.00  0.00    +0.000 C 
ATOM   1650  C2' A   B   9     -26.799  23.898 -37.449  0.00  0.00    +0.000 C 
ATOM   1651  C1' A   B   9     -25.640  23.334 -38.271  0.00  0.00    +0.000 C 
BRANCH16511652
ATOM   1652  N9  A   B   9     -24.327  23.730 -37.742  0.00  0.00    +0.000 N 
ATOM   1653  C8  A   B   9     -23.428  24.596 -38.293  0.00  0.00    +0.000 A 
ATOM   1654  N7  A   B   9     -22.329  24.743 -37.583  0.00  0.00    +0.000 NA
ATOM   1655  C5  A   B   9     -22.525  23.909 -36.490  0.00  0.00    +0.000 A 
ATOM   1656  C6  A   B   9     -21.732  23.615 -35.369  0.00  0.00    +0.000 A 
ATOM   1657  N6  A   B   9     -20.529  24.154 -35.151  0.00  0.00    +0.000 N 
ATOM   1658  N1  A   B   9     -22.215  22.741 -34.470  0.00  0.00    +0.000 NA
ATOM   1659  C2  A   B   9     -23.422  22.200 -34.692  0.00  0.00    +0.000 A 
ATOM   1660  N3  A   B   9     -24.260  22.402 -35.704  0.00  0.00    +0.000 NA
ATOM   1661  C4  A   B   9     -23.748  23.276 -36.580  0.00  0.00    +0.000 A 
ATOM   1662  H   A   B   9     -20.154  24.797 -35.795  0.00  0.00    +0.000 HD
ATOM   1663  H   A   B   9     -20.018  23.908 -34.346  0.00  0.00    +0.000 HD
ENDBRANCH16511652
BRANCH16501664
ATOM   1664  O2' A   B   9     -27.876  22.993 -37.463  0.00  0.00    +0.000 OA
ATOM   1665  H   A   B   9     -28.119  22.794 -38.381  0.00  0.00    +0.000 HD
ENDBRANCH16501664
BRANCH16471666
ATOM   1666  C5' A   B   9     -26.683  25.834 -40.664  0.00  0.00    +0.000 C 
BRANCH16661667
ATOM   1667  O5' A   B   9     -25.458  26.485 -40.390  0.00  0.00    +0.000 OA
BRANCH16671668
ATOM   1668  P   A   B   9     -25.383  28.080 -40.280  0.00  0.00    +0.000 P 
ATOM   1669  OP1 A   B   9     -26.183  28.641 -41.381  0.00  0.00    +0.000 OA
BRANCH16681670
ATOM   1670  OP2 A   B   9     -25.677  28.480 -38.890  0.00  0.00    +0.000 OA
ATOM   1671  H   A   B   9     -25.633  29.446 -38.815  0.00  0.00    +0.000 HD
ENDBRANCH16681670
BRANCH16681672
ATOM   1672  O3' U   B   8     -24.001  28.270 -40.453  0.00  0.00    +0.000 OA
BRANCH16721675
ATOM   1673  C4' U   B   8     -23.100  29.575 -42.368  0.00  0.00    +0.000 C 
ATOM   1674  O4' U   B   8     -22.281  29.240 -43.519  0.00  0.00    +0.000 OA
ATOM   1675  C3' U   B   8     -23.077  28.300 -41.563  0.00  0.00    +0.000 C 
ATOM   1676  C2' U   B   8     -23.202  27.241 -42.668  0.00  0.00    +0.000 C 
ATOM   1677  C1' U   B   8     -22.261  27.826 -43.710  0.00  0.00    +0.000 C 
BRANCH16771678
ATOM   1678  N1  U   B   8     -20.872  27.338 -43.528  0.00  0.00    +0.000 N 
ATOM   1679  C2  U   B   8     -20.507  26.195 -44.219  0.00  0.00    +0.000 A 
ATOM   1680  O2  U   B   8     -21.275  25.607 -44.963  0.00  0.00    +0.000 OA
ATOM   1681  N3  U   B   8     -19.216  25.770 -44.013  0.00  0.00    +0.000 N 
ATOM   1682  C4  U   B   8     -18.268  26.349 -43.200  0.00  0.00    +0.000 A 
ATOM   1683  O4  U   B   8     -17.151  25.844 -43.121  0.00  0.00    +0.000 OA
ATOM   1684  C5  U   B   8     -18.715  27.518 -42.516  0.00  0.00    +0.000 A 
ATOM   1685  C6  U   B   8     -19.970  27.961 -42.700  0.00  0.00    +0.000 A 
ATOM   1686  H   U   B   8     -18.939  24.961 -44.501  0.00  0.00    +0.000 HD
ENDBRANCH16771678
BRANCH16761687
ATOM   1687  O2' U   B   8     -24.489  27.164 -43.234  0.00  0.00    +0.000 OA
ATOM   1688  H   U   B   8     -24.743  28.034 -43.580  0.00  0.00    +0.000 HD
ENDBRANCH16761687
BRANCH16731689
ATOM   1689  C5' U   B   8     -22.574  30.779 -41.666  0.00  0.00    +0.000 C 
BRANCH16891690
ATOM   1690  O5' U   B   8     -21.470  30.424 -40.834  0.00  0.00    +0.000 OA
BRANCH16901691
ATOM   1691  P   U   B   8     -20.761  31.493 -39.897  0.00  0.00    +0.000 P 
ATOM   1692  OP2 U   B   8     -19.608  30.823 -39.244  0.00  0.00    +0.000 OA
BRANCH16911693
ATOM   1693  OP1 U   B   8     -21.791  32.151 -39.068  0.00  0.00    +0.000 OA
ATOM   1694  H   U   B   8     -22.470  32.538 -39.643  0.00  0.00    +0.000 HD
ENDBRANCH16911693
BRANCH16911695
ATOM   1695  O3' C   B   7     -20.235  32.560 -40.914  0.00  0.00    +0.000 OA
BRANCH16951698
ATOM   1696  C4' C   B   7     -18.321  33.488 -42.109  0.00  0.00    +0.000 C 
ATOM   1697  O4' C   B   7     -17.571  33.072 -43.282  0.00  0.00    +0.000 OA
ATOM   1698  C3' C   B   7     -19.110  32.256 -41.728  0.00  0.00    +0.000 C 
ATOM   1699  C2' C   B   7     -19.487  31.683 -43.087  0.00  0.00    +0.000 C 
ATOM   1700  C1' C   B   7     -18.223  31.978 -43.897  0.00  0.00    +0.000 C 
BRANCH17001701
ATOM   1701  N1  C   B   7     -17.294  30.830 -43.947  0.00  0.00    +0.000 N 
ATOM   1702  C2  C   B   7     -17.562  29.789 -44.840  0.00  0.00    +0.000 A 
ATOM   1703  O2  C   B   7     -18.566  29.859 -45.562  0.00  0.00    +0.000 OA
ATOM   1704  N3  C   B   7     -16.722  28.732 -44.900  0.00  0.00    +0.000 NA
ATOM   1705  C4  C   B   7     -15.650  28.685 -44.110  0.00  0.00    +0.000 A 
ATOM   1706  N4  C   B   7     -14.850  27.624 -44.205  0.00  0.00    +0.000 N 
ATOM   1707  C5  C   B   7     -15.353  29.729 -43.193  0.00  0.00    +0.000 A 
ATOM   1708  C6  C   B   7     -16.192  30.771 -43.146  0.00  0.00    +0.000 A 
ATOM   1709  H   C   B   7     -15.061  26.904 -44.842  0.00  0.00    +0.000 HD
ATOM   1710  H   C   B   7     -14.048  27.560 -43.638  0.00  0.00    +0.000 HD
ENDBRANCH17001701
BRANCH16991711
ATOM   1711  O2' C   B   7     -20.575  32.369 -43.666  0.00  0.00    +0.000 OA
ATOM   1712  H   C   B   7     -20.363  33.313 -43.733  0.00  0.00    +0.000 HD
ENDBRANCH16991711
BRANCH16961713
ATOM   1713  C5' C   B   7     -17.380  34.027 -41.059  0.00  0.00    +0.000 C 
BRANCH17131714
ATOM   1714  O5' C   B   7     -16.396  33.059 -40.701  0.00  0.00    +0.000 OA
BRANCH17141715
ATOM   1715  P   C   B   7     -15.108  33.473 -39.866  0.00  0.00    +0.000 P 
ATOM   1716  OP2 C   B   7     -14.245  32.271 -39.740  0.00  0.00    +0.000 OA
BRANCH17151717
ATOM   1717  OP1 C   B   7     -15.552  34.188 -38.644  0.00  0.00    +0.000 OA
ATOM   1718  H   C   B   7     -16.105  34.945 -38.895  0.00  0.00    +0.000 HD
ENDBRANCH17151717
BRANCH17151719
ATOM   1719  O3' A   B   6     -14.375  34.543 -40.798  0.00  0.00    +0.000 OA
BRANCH17191722
ATOM   1720  C4' A   B   6     -12.521  35.019 -42.331  0.00  0.00    +0.000 C 
ATOM   1721  O4' A   B   6     -12.283  34.722 -43.732  0.00  0.00    +0.000 OA
ATOM   1722  C3' A   B   6     -13.686  34.117 -41.965  0.00  0.00    +0.000 C 
ATOM   1723  C2' A   B   6     -14.536  34.182 -43.222  0.00  0.00    +0.000 C 
ATOM   1724  C1' A   B   6     -13.463  34.190 -44.306  0.00  0.00    +0.000 C 
BRANCH17241725
ATOM   1725  N9  A   B   6     -13.186  32.836 -44.807  0.00  0.00    +0.000 N 
ATOM   1726  C8  A   B   6     -12.128  32.018 -44.511  0.00  0.00    +0.000 A 
ATOM   1727  N7  A   B   6     -12.171  30.858 -45.120  0.00  0.00    +0.000 NA
ATOM   1728  C5  A   B   6     -13.339  30.919 -45.865  0.00  0.00    +0.000 A 
ATOM   1729  C6  A   B   6     -13.956  30.007 -46.732  0.00  0.00    +0.000 A 
ATOM   1730  N1  A   B   6     -15.110  30.376 -47.315  0.00  0.00    +0.000 NA
ATOM   1731  C2  A   B   6     -15.606  31.586 -47.043  0.00  0.00    +0.000 A 
ATOM   1732  N3  A   B   6     -15.118  32.532 -46.248  0.00  0.00    +0.000 NA
ATOM   1733  C4  A   B   6     -13.969  32.131 -45.682  0.00  0.00    +0.000 A 
BRANCH17291734
ATOM   1734  N6  A   B   6     -13.465  28.795 -47.005  0.00  0.00    +0.000 N 
ATOM   1735  H   A   B   6     -13.944  28.198 -47.623  0.00  0.00    +0.000 HD
ATOM   1736  H   A   B   6     -12.624  28.499 -46.588  0.00  0.00    +0.000 HD
ENDBRANCH17291734
ENDBRANCH17241725
BRANCH17231737
ATOM   1737  O2' A   B   6     -15.275  35.389 -43.299  0.00  0.00    +0.000 OA
ATOM   1738  H   A   B   6     -14.668  36.144 -43.248  0.00  0.00    +0.000 HD
ENDBRANCH17231737
BRANCH17201739
ATOM   1739  C5' A   B   6     -11.252  34.828 -41.537  0.00  0.00    +0.000 C 
BRANCH17391740
ATOM   1740  O5' A   B   6     -10.739  33.508 -41.690  0.00  0.00    +0.000 OA
BRANCH17401741
ATOM   1741  P   A   B   6      -9.256  33.155 -41.224  0.00  0.00    +0.000 P 
ATOM   1742  OP2 A   B   6      -9.033  31.711 -41.483  0.00  0.00    +0.000 OA
BRANCH17411743
ATOM   1743  OP1 A   B   6      -9.059  33.698 -39.858  0.00  0.00    +0.000 OA
ATOM   1744  H   A   B   6      -9.244  34.650 -39.859  0.00  0.00    +0.000 HD
ENDBRANCH17411743
BRANCH17411745
ATOM   1745  O3' U   B   5      -8.338  33.998 -42.225  0.00  0.00    +0.000 OA
BRANCH17451748
ATOM   1746  C4' U   B   5      -6.854  33.967 -44.179  0.00  0.00    +0.000 C 
ATOM   1747  O4' U   B   5      -7.082  33.914 -45.612  0.00  0.00    +0.000 OA
ATOM   1748  C3' U   B   5      -8.195  33.596 -43.582  0.00  0.00    +0.000 C 
ATOM   1749  C2' U   B   5      -9.158  34.295 -44.531  0.00  0.00    +0.000 C 
ATOM   1750  C1' U   B   5      -8.466  34.069 -45.876  0.00  0.00    +0.000 C 
BRANCH17501751
ATOM   1751  N1  U   B   5      -8.966  32.858 -46.560  0.00  0.00    +0.000 N 
ATOM   1752  C2  U   B   5     -10.151  32.976 -47.266  0.00  0.00    +0.000 A 
ATOM   1753  O2  U   B   5     -10.775  34.021 -47.342  0.00  0.00    +0.000 OA
ATOM   1754  N3  U   B   5     -10.581  31.825 -47.881  0.00  0.00    +0.000 N 
ATOM   1755  C4  U   B   5      -9.963  30.592 -47.861  0.00  0.00    +0.000 A 
ATOM   1756  O4  U   B   5     -10.476  29.650 -48.460  0.00  0.00    +0.000 OA
ATOM   1757  C5  U   B   5      -8.748  30.552 -47.113  0.00  0.00    +0.000 A 
ATOM   1758  C6  U   B   5      -8.306  31.660 -46.505  0.00  0.00    +0.000 A 
ATOM   1759  H   U   B   5     -11.421  31.887 -48.391  0.00  0.00    +0.000 HD
ENDBRANCH17501751
BRANCH17491760
ATOM   1760  O2' U   B   5      -9.238  35.682 -44.280  0.00  0.00    +0.000 OA
ATOM   1761  H   U   B   5      -8.352  36.072 -44.336  0.00  0.00    +0.000 HD
ENDBRANCH17491760
BRANCH17461762
ATOM   1762  C5' U   B   5      -5.692  33.076 -43.809  0.00  0.00    +0.000 C 
BRANCH17621763
ATOM   1763  O5' U   B   5      -5.940  31.722 -44.171  0.00  0.00    +0.000 OA
BRANCH17631764
ATOM   1764  P   U   B   5      -4.772  30.639 -44.144  0.00  0.00    +0.000 P 
ATOM   1765  OP2 U   B   5      -5.350  29.331 -44.557  0.00  0.00    +0.000 OA
BRANCH17641766
ATOM   1766  OP1 U   B   5      -4.068  30.757 -42.841  0.00  0.00    +0.000 OA
ATOM   1767  H   U   B   5      -3.350  30.106 -42.801  0.00  0.00    +0.000 HD
ENDBRANCH17641766
BRANCH17641768
ATOM   1768  O3' A   B   4      -3.765  31.130 -45.289  0.00  0.00    +0.000 OA
BRANCH17681771
ATOM   1769  C4' A   B   4      -2.928  30.761 -47.557  0.00  0.00    +0.000 C 
ATOM   1770  O4' A   B   4      -3.368  31.201 -48.869  0.00  0.00    +0.000 OA
ATOM   1771  C3' A   B   4      -4.123  31.024 -46.661  0.00  0.00    +0.000 C 
ATOM   1772  C2' A   B   4      -4.676  32.318 -47.239  0.00  0.00    +0.000 C 
ATOM   1773  C1' A   B   4      -4.450  32.101 -48.732  0.00  0.00    +0.000 C 
BRANCH17731774
ATOM   1774  N9  A   B   4      -5.631  31.524 -49.393  0.00  0.00    +0.000 N 
ATOM   1775  C8  A   B   4      -5.841  30.219 -49.769  0.00  0.00    +0.000 A 
ATOM   1776  N7  A   B   4      -7.001  30.012 -50.343  0.00  0.00    +0.000 NA
ATOM   1777  C5  A   B   4      -7.594  31.266 -50.346  0.00  0.00    +0.000 A 
ATOM   1778  C6  A   B   4      -8.833  31.721 -50.817  0.00  0.00    +0.000 A 
ATOM   1779  N1  A   B   4      -9.121  33.028 -50.670  0.00  0.00    +0.000 NA
ATOM   1780  C2  A   B   4      -8.214  33.821 -50.088  0.00  0.00    +0.000 A 
ATOM   1781  N3  A   B   4      -7.014  33.513 -49.608  0.00  0.00    +0.000 NA
ATOM   1782  C4  A   B   4      -6.762  32.204 -49.768  0.00  0.00    +0.000 A 
BRANCH17781783
ATOM   1783  N6  A   B   4      -9.745  30.928 -51.400  0.00  0.00    +0.000 N 
ATOM   1784  H   A   B   4     -10.599  31.306 -51.711  0.00  0.00    +0.000 HD
ATOM   1785  H   A   B   4      -9.560  29.968 -51.517  0.00  0.00    +0.000 HD
ENDBRANCH17781783
ENDBRANCH17731774
BRANCH17721786
ATOM   1786  O2' A   B   4      -3.929  33.448 -46.819  0.00  0.00    +0.000 OA
ATOM   1787  H   A   B   4      -2.998  33.328 -47.062  0.00  0.00    +0.000 HD
ENDBRANCH17721786
BRANCH17691788
ATOM   1788  C5' A   B   4      -2.461  29.328 -47.629  0.00  0.00    +0.000 C 
BRANCH17881789
ATOM   1789  O5' A   B   4      -3.482  28.480 -48.150  0.00  0.00    +0.000 OA
BRANCH17891790
ATOM   1790  P   A   B   4      -3.158  26.984 -48.588  0.00  0.00    +0.000 P 
ATOM   1791  OP2 A   B   4      -4.431  26.347 -49.021  0.00  0.00    +0.000 OA
BRANCH17901792
ATOM   1792  OP1 A   B   4      -2.356  26.355 -47.511  0.00  0.00    +0.000 OA
ATOM   1793  H   A   B   4      -2.146  25.440 -47.756  0.00  0.00    +0.000 HD
ENDBRANCH17901792
BRANCH17901794
ATOM   1794  O3' A   B   3      -2.220  27.146 -49.875  0.00  0.00    +0.000 OA
BRANCH17941797
ATOM   1795  C4' A   B   3      -1.956  27.099 -52.307  0.00  0.00    +0.000 C 
ATOM   1796  O4' A   B   3      -2.328  28.016 -53.370  0.00  0.00    +0.000 OA
ATOM   1797  C3' A   B   3      -2.765  27.579 -51.117  0.00  0.00    +0.000 C 
ATOM   1798  C2' A   B   3      -2.722  29.089 -51.293  0.00  0.00    +0.000 C 
ATOM   1799  C1' A   B   3      -2.817  29.219 -52.810  0.00  0.00    +0.000 C 
BRANCH17991800
ATOM   1800  N9  A   B   3      -4.201  29.430 -53.264  0.00  0.00    +0.000 N 
ATOM   1801  C8  A   B   3      -5.065  28.522 -53.826  0.00  0.00    +0.000 A 
ATOM   1802  N7  A   B   3      -6.239  29.023 -54.126  0.00  0.00    +0.000 NA
ATOM   1803  C5  A   B   3      -6.139  30.352 -53.736  0.00  0.00    +0.000 A 
ATOM   1804  C6  A   B   3      -7.046  31.423 -53.789  0.00  0.00    +0.000 A 
ATOM   1805  N1  A   B   3      -6.633  32.619 -53.320  0.00  0.00    +0.000 NA
ATOM   1806  C2  A   B   3      -5.389  32.726 -52.832  0.00  0.00    +0.000 A 
ATOM   1807  N3  A   B   3      -4.447  31.794 -52.734  0.00  0.00    +0.000 NA
ATOM   1808  C4  A   B   3      -4.892  30.614 -53.208  0.00  0.00    +0.000 A 
BRANCH18041809
ATOM   1809  N6  A   B   3      -8.292  31.324 -54.274  0.00  0.00    +0.000 N 
ATOM   1810  H   A   B   3      -8.618  30.463 -54.622  0.00  0.00    +0.000 HD
ATOM   1811  H   A   B   3      -8.881  32.113 -54.282  0.00  0.00    +0.000 HD
ENDBRANCH18041809
ENDBRANCH17991800
BRANCH17981812
ATOM   1812  O2' A   B   3      -1.487  29.636 -50.862  0.00  0.00    +0.000 OA
ATOM   1813  H   A   B   3      -0.759  29.208 -51.340  0.00  0.00    +0.000 HD
ENDBRANCH17981812
BRANCH17951814
ATOM   1814  C5' A   B   3      -2.195  25.676 -52.751  0.00  0.00    +0.000 C 
BRANCH18141815
ATOM   1815  O5' A   B   3      -3.521  25.499 -53.237  0.00  0.00    +0.000 OA
BRANCH18151816
ATOM   1816  P   A   B   3      -3.914  24.200 -54.074  0.00  0.00    +0.000 P 
ATOM   1817  OP2 A   B   3      -5.380  24.223 -54.300  0.00  0.00    +0.000 OA
BRANCH18161818
ATOM   1818  OP1 A   B   3      -3.293  23.026 -53.414  0.00  0.00    +0.000 OA
ATOM   1819  H   A   B   3      -3.519  22.221 -53.907  0.00  0.00    +0.000 HD
ENDBRANCH18161818
BRANCH18161820
ATOM   1820  O3' U   B   2      -3.189  24.424 -55.492  0.00  0.00    +0.000 OA
BRANCH18201823
ATOM   1821  C4' U   B   2      -3.408  24.994 -57.864  0.00  0.00    +0.000 C 
ATOM   1822  O4' U   B   2      -3.504  26.249 -58.589  0.00  0.00    +0.000 OA
ATOM   1823  C3' U   B   2      -3.692  25.377 -56.426  0.00  0.00    +0.000 C 
ATOM   1824  C2' U   B   2      -3.021  26.740 -56.317  0.00  0.00    +0.000 C 
ATOM   1825  C1' U   B   2      -3.321  27.328 -57.699  0.00  0.00    +0.000 C 
BRANCH18251826
ATOM   1826  N1  U   B   2      -4.540  28.169 -57.703  0.00  0.00    +0.000 N 
ATOM   1827  C2  U   B   2      -4.419  29.470 -57.252  0.00  0.00    +0.000 A 
ATOM   1828  O2  U   B   2      -3.363  29.940 -56.860  0.00  0.00    +0.000 OA
ATOM   1829  N3  U   B   2      -5.578  30.208 -57.279  0.00  0.00    +0.000 N 
ATOM   1830  C4  U   B   2      -6.822  29.785 -57.700  0.00  0.00    +0.000 A 
ATOM   1831  O4  U   B   2      -7.771  30.567 -57.663  0.00  0.00    +0.000 OA
ATOM   1832  C5  U   B   2      -6.866  28.430 -58.152  0.00  0.00    +0.000 A 
ATOM   1833  C6  U   B   2      -5.752  27.688 -58.140  0.00  0.00    +0.000 A 
ATOM   1834  H   U   B   2      -5.514  31.139 -56.964  0.00  0.00    +0.000 HD
ENDBRANCH18251826
BRANCH18241835
ATOM   1835  O2' U   B   2      -1.614  26.629 -56.165  0.00  0.00    +0.000 OA
ATOM   1836  H   U   B   2      -1.248  26.118 -56.904  0.00  0.00    +0.000 HD
ENDBRANCH18241835
BRANCH18211837
ATOM   1837  C5' U   B   2      -4.347  23.984 -58.475  0.00  0.00    +0.000 C 
BRANCH18371838
ATOM   1838  O5' U   B   2      -5.699  24.434 -58.418  0.00  0.00    +0.000 OA
BRANCH18381839
ATOM   1839  P   U   B   2      -6.843  23.725 -59.266  0.00  0.00    +0.000 P 
ATOM   1840  OP1 U   B   2      -6.734  22.262 -59.056  0.00  0.00    +0.000 OA
BRANCH18391841
ATOM   1841  OP2 U   B   2      -8.127  24.416 -58.989  0.00  0.00    +0.000 OA
ATOM   1842  H   U   B   2      -8.837  23.996 -59.499  0.00  0.00    +0.000 HD
ENDBRANCH18391841
BRANCH18391843
ATOM   1843  O3' C   B   1      -6.381  24.038 -60.804  0.00  0.00    +0.000 OA
BRANCH18431846
ATOM   1844  C4' C   B   1      -7.141  25.155 -62.828  0.00  0.00    +0.000 C 
ATOM   1845  O4' C   B   1      -6.872  26.446 -63.431  0.00  0.00    +0.000 OA
ATOM   1846  C3' C   B   1      -6.681  25.301 -61.398  0.00  0.00    +0.000 C 
ATOM   1847  C2' C   B   1      -5.480  26.212 -61.531  0.00  0.00    +0.000 C 
ATOM   1848  C1' C   B   1      -5.917  27.140 -62.662  0.00  0.00    +0.000 C 
BRANCH18481849
ATOM   1849  N1  C   B   1      -6.514  28.410 -62.196  0.00  0.00    +0.000 N 
ATOM   1850  C2  C   B   1      -5.678  29.418 -61.726  0.00  0.00    +0.000 A 
ATOM   1851  O2  C   B   1      -4.451  29.229 -61.703  0.00  0.00    +0.000 OA
ATOM   1852  N3  C   B   1      -6.216  30.589 -61.303  0.00  0.00    +0.000 NA
ATOM   1853  C4  C   B   1      -7.537  30.769 -61.342  0.00  0.00    +0.000 A 
ATOM   1854  N4  C   B   1      -8.023  31.938 -60.922  0.00  0.00    +0.000 N 
ATOM   1855  C5  C   B   1      -8.420  29.762 -61.821  0.00  0.00    +0.000 A 
ATOM   1856  C6  C   B   1      -7.869  28.611 -62.233  0.00  0.00    +0.000 A 
ATOM   1857  H   C   B   1      -8.994  32.102 -60.938  0.00  0.00    +0.000 HD
ATOM   1858  H   C   B   1      -7.411  32.637 -60.596  0.00  0.00    +0.000 HD
ENDBRANCH18481849
BRANCH18471859
ATOM   1859  O2' C   B   1      -4.330  25.494 -61.936  0.00  0.00    +0.000 OA
ATOM   1860  H   C   B   1      -4.515  25.030 -62.767  0.00  0.00    +0.000 HD
ENDBRANCH18471859
BRANCH18441861
ATOM   1861  C5' C   B   1      -8.596  24.820 -62.995  0.00  0.00    +0.000 C 
BRANCH18611862
ATOM   1862  O5' C   B   1      -9.404  25.789 -62.347  0.00  0.00    +0.000 OA
BRANCH18621864
ATOM   1863  OP3 C   B   1     -11.572  26.174 -63.373  0.00  0.00    +0.000 OA
ATOM   1864  P   C   B   1     -11.000  25.728 -62.323  0.00  0.00    +0.000 P 
BRANCH18641865
ATOM   1865  OP2 C   B   1     -11.418  26.882 -61.494  0.00  0.00    +0.000 OA
ATOM   1866  H   C   B   1     -11.132  27.706 -61.919  0.00  0.00    +0.000 HD
ENDBRANCH18641865
BRANCH18641867
ATOM   1867  OP1 C   B   1     -11.370  24.436 -61.794  0.00  0.00    +0.000 OA
ATOM   1868  H   C   B   1     -11.060  23.740 -62.394  0.00  0.00    +0.000 HD
ENDBRANCH18641867
ENDBRANCH18621864
ENDBRANCH18611862
ENDBRANCH18441861
ENDBRANCH18431846
ENDBRANCH18391843
ENDBRANCH18381839
ENDBRANCH18371838
ENDBRANCH18211837
ENDBRANCH18201823
ENDBRANCH18161820
ENDBRANCH18151816
ENDBRANCH18141815
ENDBRANCH17951814
ENDBRANCH17941797
ENDBRANCH17901794
ENDBRANCH17891790
ENDBRANCH17881789
ENDBRANCH17691788
ENDBRANCH17681771
ENDBRANCH17641768
ENDBRANCH17631764
ENDBRANCH17621763
ENDBRANCH17461762
ENDBRANCH17451748
ENDBRANCH17411745
ENDBRANCH17401741
ENDBRANCH17391740
ENDBRANCH17201739
ENDBRANCH17191722
ENDBRANCH17151719
ENDBRANCH17141715
ENDBRANCH17131714
ENDBRANCH16961713
ENDBRANCH16951698
ENDBRANCH16911695
ENDBRANCH16901691
ENDBRANCH16891690
ENDBRANCH16731689
ENDBRANCH16721675
ENDBRANCH16681672
ENDBRANCH16671668
ENDBRANCH16661667
ENDBRANCH16471666
ENDBRANCH16461649
ENDBRANCH16421646
ENDBRANCH16411642
ENDBRANCH16401641
ENDBRANCH16241640
ENDBRANCH16231626
ENDBRANCH16191623
ENDBRANCH16181619
ENDBRANCH16171618
ENDBRANCH16011617
ENDBRANCH16001603
ENDBRANCH15961600
ENDBRANCH15951596
ENDBRANCH15941595
ENDBRANCH15781594
ENDBRANCH15771580
ENDBRANCH15731577
ENDBRANCH15721573
ENDBRANCH15711572
ENDBRANCH15541571
ENDBRANCH15531556
ENDBRANCH15491553
ENDBRANCH15481549
ENDBRANCH15471548
ENDBRANCH15281547
ENDBRANCH15271530
ENDBRANCH15231527
ENDBRANCH15221523
ENDBRANCH15211522
ENDBRANCH15051521
ENDBRANCH15041507
ENDBRANCH15001504
ENDBRANCH14991500
ENDBRANCH14981499
ENDBRANCH14811498
ENDBRANCH14801483
ENDBRANCH14761480
ENDBRANCH14751476
ENDBRANCH14741475
ENDBRANCH14571474
ENDBRANCH14561459
ENDBRANCH14521456
ENDBRANCH14511452
ENDBRANCH14501451
ENDBRANCH14291450
ENDBRANCH14281431
ENDBRANCH14241428
ENDBRANCH14231424
ENDBRANCH14221423
ENDBRANCH14031422
ENDBRANCH14021405
ENDBRANCH13981402
ENDBRANCH13971398
ENDBRANCH13961397
ENDBRANCH13771396
ENDBRANCH13761379
ENDBRANCH13721376
ENDBRANCH13711372
ENDBRANCH13701371
ENDBRANCH13511370
ENDBRANCH13501353
ENDBRANCH13461350
ENDBRANCH13451346
ENDBRANCH13441345
ENDBRANCH13271344
ENDBRANCH13261329
ENDBRANCH13221326
ENDBRANCH13211322
ENDBRANCH13201321
ENDBRANCH13041320
ENDBRANCH13031306
ENDBRANCH12991303
ENDBRANCH12981299
ENDBRANCH12971298
ENDBRANCH12811297
ENDBRANCH12801283
ENDBRANCH12761280
ENDBRANCH12751276
ENDBRANCH12741275
ENDBRANCH12581274
ENDBRANCH12571260
ENDBRANCH12531257
ENDBRANCH12521253
ENDBRANCH12511252
ENDBRANCH12351251
ENDBRANCH12341237
ENDBRANCH12301234
ENDBRANCH12291230
ENDBRANCH12281229
ENDBRANCH12121228
ENDBRANCH12111214
ENDBRANCH12071211
ENDBRANCH12061207
ENDBRANCH12051206
ENDBRANCH11891205
ENDBRANCH11881191
ENDBRANCH11841188
ENDBRANCH11831184
ENDBRANCH11821183
ENDBRANCH11631182
ENDBRANCH11621165
ENDBRANCH11581162
ENDBRANCH11571158
ENDBRANCH11561157
ENDBRANCH11371156
ENDBRANCH11361139
ENDBRANCH11321136
ENDBRANCH11311132
ENDBRANCH11301131
ENDBRANCH11111130
ENDBRANCH11101113
ENDBRANCH11061110
ENDBRANCH11051106
ENDBRANCH11041105
ENDBRANCH10851104
ENDBRANCH10841087
ENDBRANCH10801084
ENDBRANCH10791080
ENDBRANCH10781079
ENDBRANCH10621078
ENDBRANCH10611064
ENDBRANCH10571061
ENDBRANCH10561057
ENDBRANCH10551056
ENDBRANCH10361055
ENDBRANCH10351038
ENDBRANCH10311035
ENDBRANCH10301031
ENDBRANCH10291030
ENDBRANCH10101029
ENDBRANCH10091012
ENDBRANCH10051009
ENDBRANCH10041005
ENDBRANCH10031004
ENDBRANCH 9871003
ENDBRANCH 986 989
ENDBRANCH 982 986
ENDBRANCH 981 982
ENDBRANCH 980 981
ENDBRANCH 961 980
ENDBRANCH 960 963
ENDBRANCH 956 960
ENDBRANCH 955 956
ENDBRANCH 954 955
ENDBRANCH 938 954
ENDBRANCH 937 940
ENDBRANCH   1 937
TORSDOF 630
