REMARK  Name = /storage/kiran-stuff/aaRS/phase2/energy_scoring/vina_182jobs/proRS_modern_Pro_PRO/ligand.h.pdb
REMARK  2 active torsions:
REMARK  status: ('A' for Active; 'I' for Inactive)
REMARK    1  A    between atoms: CA_2  and  C_3
REMARK    2  A    between atoms: C_3  and  O_4
REMARK                            x       y       z     vdW  Elec       q    Type
REMARK                         _______ _______ _______ _____ _____    ______ ____
ROOT
ATOM      1  N   PRO L   1      41.266 -25.643  -0.677  0.00  0.00    +0.000 NA
ATOM      2  CA  PRO L   1      40.905 -26.859   0.044  0.00  0.00    +0.000 C 
ATOM      3  CB  PRO L   1      40.585 -26.387   1.421  0.00  0.00    +0.000 C 
ATOM      4  CG  PRO L   1      40.198 -24.999   1.251  0.00  0.00    +0.000 C 
ATOM      5  CD  PRO L   1      40.988 -24.498   0.123  0.00  0.00    +0.000 C 
ATOM      6  H   PRO L   1      42.261 -25.665  -0.899  0.00  0.00    +0.000 HD
ENDROOT
BRANCH   2   7
ATOM      7  C   PRO L   1      39.682 -27.527  -0.581  0.00  0.00    +0.000 C 
ATOM      8  OXT PRO L   1      38.933 -26.844  -1.269  0.00  0.00    +0.000 OA
BRANCH   7   9
ATOM      9  O   PRO L   1      39.511 -28.737  -0.390  0.00  0.00    +0.000 OA
ATOM     10  H   PRO L   1      40.112 -29.216   0.145  0.00  0.00    +0.000 HD
ENDBRANCH   7   9
ENDBRANCH   2   7
TORSDOF 2
