REMARK  Name = /storage/kiran-stuff/aaRS/phase2/energy_scoring/vina_182jobs/proRS_modern_Pro_PRO/ligand.h.pdb
REMARK  2 active torsions:
REMARK  status: ('A' for Active; 'I' for Inactive)
REMARK    1  A    between atoms: CA_2  and  C_3
REMARK    2  A    between atoms: C_3  and  O_4
REMARK                            x       y       z     vdW  Elec       q    Type
REMARK                         _______ _______ _______ _____ _____    ______ ____
ROOT
ATOM      1  N   PRO L   1      41.332 -25.677  -0.662  0.00  0.00    +0.000 NA
ATOM      2  CA  PRO L   1      40.865 -26.887   0.005  0.00  0.00    +0.000 C 
ATOM      3  CB  PRO L   1      40.522 -26.437   1.383  0.00  0.00    +0.000 C 
ATOM      4  CG  PRO L   1      40.232 -25.022   1.244  0.00  0.00    +0.000 C 
ATOM      5  CD  PRO L   1      41.097 -24.540   0.162  0.00  0.00    +0.000 C 
ATOM      6  H   PRO L   1      42.332 -25.758  -0.847  0.00  0.00    +0.000 HD
ENDROOT
BRANCH   2   7
ATOM      7  C   PRO L   1      39.627 -27.455  -0.686  0.00  0.00    +0.000 C 
ATOM      8  OXT PRO L   1      38.947 -26.702  -1.373  0.00  0.00    +0.000 OA
BRANCH   7   9
ATOM      9  O   PRO L   1      39.376 -28.658  -0.549  0.00  0.00    +0.000 OA
ATOM     10  H   PRO L   1      39.927 -29.193  -0.012  0.00  0.00    +0.000 HD
ENDBRANCH   7   9
ENDBRANCH   2   7
TORSDOF 2
