REMARK  Name = /storage/kiran-stuff/aaRS/phase2/energy_scoring/vina_182jobs/anc_thrrs_cat_zn_PRO_PRO/ligand.h.pdb
REMARK  2 active torsions:
REMARK  status: ('A' for Active; 'I' for Inactive)
REMARK    1  A    between atoms: CA_2  and  C_3
REMARK    2  A    between atoms: C_3  and  O_4
REMARK                            x       y       z     vdW  Elec       q    Type
REMARK                         _______ _______ _______ _____ _____    ______ ____
ROOT
ATOM      1  N   PRO B   1      -3.630   7.400  -1.716  0.00  0.00    +0.000 NA
ATOM      2  CA  PRO B   1      -4.522   6.256  -1.701  0.00  0.00    +0.000 C 
ATOM      3  CB  PRO B   1      -4.715   5.924  -0.252  0.00  0.00    +0.000 C 
ATOM      4  CG  PRO B   1      -3.661   6.604   0.474  0.00  0.00    +0.000 C 
ATOM      5  CD  PRO B   1      -3.079   7.590  -0.434  0.00  0.00    +0.000 C 
ATOM      6  H   PRO B   1      -4.152   8.233  -1.987  0.00  0.00    +0.000 HD
ENDROOT
BRANCH   2   7
ATOM      7  C   PRO B   1      -5.858   6.560  -2.362  0.00  0.00    +0.000 C 
ATOM      8  OXT PRO B   1      -6.530   5.622  -2.820  0.00  0.00    +0.000 OA
BRANCH   7   9
ATOM      9  O   PRO B   1      -6.254   7.716  -2.401  0.00  0.00    +0.000 OA
ATOM     10  H   PRO B   1      -5.726   8.404  -2.048  0.00  0.00    +0.000 HD
ENDBRANCH   7   9
ENDBRANCH   2   7
TORSDOF 2
