REMARK  Name = /storage/kiran-stuff/aaRS/phase2/energy_scoring/vina_182jobs/modern_prors_MET_MET/ligand.h.pdb
REMARK  7 active torsions:
REMARK  status: ('A' for Active; 'I' for Inactive)
REMARK    1  A    between atoms: N_1  and  CA_2
REMARK    2  A    between atoms: CA_2  and  C_3
REMARK    3  A    between atoms: CA_2  and  CB_5
REMARK    4  A    between atoms: C_3  and  OXT_9
REMARK    5  A    between atoms: CB_5  and  CG_6
REMARK    6  A    between atoms: CG_6  and  SD_7
REMARK    7  A    between atoms: SD_7  and  CE_8
REMARK                            x       y       z     vdW  Elec       q    Type
REMARK                         _______ _______ _______ _____ _____    ______ ____
ROOT
ATOM      1  CA  MET B   1      -1.537  -2.709  -8.842  0.00  0.00    +0.000 C 
ENDROOT
BRANCH   1   2
ATOM      2  N   MET B   1      -0.741  -2.999 -10.028  0.00  0.00    +0.000 NA
ATOM      3  H   MET B   1      -0.195  -2.175 -10.280  0.00  0.00    +0.000 HD
ATOM      4  H   MET B   1      -1.360  -3.247 -10.800  0.00  0.00    +0.000 HD
ENDBRANCH   1   2
BRANCH   1   5
ATOM      5  C   MET B   1      -0.657  -2.286  -7.656  0.00  0.00    +0.000 C 
ATOM      6  O   MET B   1       0.555  -2.325  -7.745  0.00  0.00    +0.000 OA
BRANCH   5   7
ATOM      7  OXT MET B   1      -1.180  -1.886  -6.607  0.00  0.00    +0.000 OA
ATOM      8  H   MET B   1      -2.113  -1.854  -6.532  0.00  0.00    +0.000 HD
ENDBRANCH   5   7
ENDBRANCH   1   5
BRANCH   1   9
ATOM      9  CB  MET B   1      -2.360  -3.891  -8.428  0.00  0.00    +0.000 C 
BRANCH   9  10
ATOM     10  CG  MET B   1      -1.565  -4.978  -7.800  0.00  0.00    +0.000 C 
BRANCH  10  11
ATOM     11  SD  MET B   1      -1.015  -6.047  -9.041  0.00  0.00    +0.000 S 
ATOM     12  CE  MET B   1       0.653  -5.673  -8.915  0.00  0.00    +0.000 C 
ENDBRANCH  10  11
ENDBRANCH   9  10
ENDBRANCH   1   9
TORSDOF 6
