REMARK  Name = /storage/kiran-stuff/aaRS/phase2/energy_scoring/vina_182jobs/modern_prors_MET_MET/ligand.h.pdb
REMARK  7 active torsions:
REMARK  status: ('A' for Active; 'I' for Inactive)
REMARK    1  A    between atoms: N_1  and  CA_2
REMARK    2  A    between atoms: CA_2  and  C_3
REMARK    3  A    between atoms: CA_2  and  CB_5
REMARK    4  A    between atoms: C_3  and  OXT_9
REMARK    5  A    between atoms: CB_5  and  CG_6
REMARK    6  A    between atoms: CG_6  and  SD_7
REMARK    7  A    between atoms: SD_7  and  CE_8
REMARK                            x       y       z     vdW  Elec       q    Type
REMARK                         _______ _______ _______ _____ _____    ______ ____
ROOT
ATOM      1  CA  MET B   1      -1.232  -2.920  -9.305  0.00  0.00    +0.000 C 
ENDROOT
BRANCH   1   2
ATOM      2  N   MET B   1      -0.718  -3.952 -10.197  0.00  0.00    +0.000 NA
ATOM      3  H   MET B   1      -0.174  -3.517 -10.942  0.00  0.00    +0.000 HD
ATOM      4  H   MET B   1      -1.498  -4.470 -10.603  0.00  0.00    +0.000 HD
ENDBRANCH   1   2
BRANCH   1   5
ATOM      5  C   MET B   1      -0.099  -2.079  -8.698  0.00  0.00    +0.000 C 
ATOM      6  O   MET B   1       0.964  -1.968  -9.278  0.00  0.00    +0.000 OA
BRANCH   5   7
ATOM      7  OXT MET B   1      -0.270  -1.495  -7.619  0.00  0.00    +0.000 OA
ATOM      8  H   MET B   1      -1.087  -1.576  -7.167  0.00  0.00    +0.000 HD
ENDBRANCH   5   7
ENDBRANCH   1   5
BRANCH   1   9
ATOM      9  CB  MET B   1      -2.041  -3.509  -8.190  0.00  0.00    +0.000 C 
BRANCH   9  10
ATOM     10  CG  MET B   1      -1.299  -4.513  -7.383  0.00  0.00    +0.000 C 
BRANCH  10  11
ATOM     11  SD  MET B   1      -1.649  -6.087  -8.003  0.00  0.00    +0.000 S 
ATOM     12  CE  MET B   1      -0.376  -6.148  -9.149  0.00  0.00    +0.000 C 
ENDBRANCH  10  11
ENDBRANCH   9  10
ENDBRANCH   1   9
TORSDOF 6
