REMARK  Name = /storage/kiran-stuff/aaRS/phase2/energy_scoring/vina_182jobs/anc_thrrs_cat_TRP_TRP/ligand.h.pdb
REMARK  5 active torsions:
REMARK  status: ('A' for Active; 'I' for Inactive)
REMARK    1  A    between atoms: N_1  and  CA_2
REMARK    2  A    between atoms: CA_2  and  C_3
REMARK    3  A    between atoms: CA_2  and  CB_5
REMARK    4  A    between atoms: C_3  and  OXT_15
REMARK    5  A    between atoms: CB_5  and  CG_6
REMARK                            x       y       z     vdW  Elec       q    Type
REMARK                         _______ _______ _______ _____ _____    ______ ____
ROOT
ATOM      1  CB  TRP B   1       8.610  10.536 -15.294  0.00  0.00    +0.000 C 
ENDROOT
BRANCH   1   2
ATOM      2  CG  TRP B   1       7.352  10.604 -14.551  0.00  0.00    +0.000 C 
ATOM      3  CD1 TRP B   1       6.119  10.941 -15.041  0.00  0.00    +0.000 C 
ATOM      4  CD2 TRP B   1       7.170  10.300 -13.170  0.00  0.00    +0.000 C 
ATOM      5  NE1 TRP B   1       5.213  10.877 -14.069  0.00  0.00    +0.000 NA
ATOM      6  CE2 TRP B   1       5.799  10.488 -12.896  0.00  0.00    +0.000 C 
ATOM      7  CE3 TRP B   1       8.021   9.915 -12.153  0.00  0.00    +0.000 C 
ATOM      8  CZ2 TRP B   1       5.277  10.287 -11.640  0.00  0.00    +0.000 C 
ATOM      9  CZ3 TRP B   1       7.505   9.712 -10.910  0.00  0.00    +0.000 C 
ATOM     10  CH2 TRP B   1       6.143   9.891 -10.627  0.00  0.00    +0.000 C 
ENDBRANCH   1   2
BRANCH   1  11
ATOM     11  CA  TRP B   1       9.053   9.064 -15.571  0.00  0.00    +0.000 C 
BRANCH  11  12
ATOM     12  N   TRP B   1      10.279   9.050 -16.349  0.00  0.00    +0.000 NA
ATOM     13  H   TRP B   1      10.559   8.085 -16.524  0.00  0.00    +0.000 HD
ATOM     14  H   TRP B   1      11.016   9.530 -15.831  0.00  0.00    +0.000 HD
ENDBRANCH  11  12
BRANCH  11  15
ATOM     15  C   TRP B   1       8.015   8.280 -16.311  0.00  0.00    +0.000 C 
ATOM     16  O   TRP B   1       6.937   8.733 -16.661  0.00  0.00    +0.000 OA
BRANCH  15  17
ATOM     17  OXT TRP B   1       8.286   7.110 -16.617  0.00  0.00    +0.000 OA
ATOM     18  H   TRP B   1       9.107   6.737 -16.361  0.00  0.00    +0.000 HD
ENDBRANCH  15  17
ENDBRANCH  11  15
ENDBRANCH   1  11
TORSDOF 5
