REMARK  Name = /storage/kiran-stuff/aaRS/phase2/energy_scoring/vina_182jobs/modern_thrrs_PHE_PHE/ligand.h.pdb
REMARK  5 active torsions:
REMARK  status: ('A' for Active; 'I' for Inactive)
REMARK    1  A    between atoms: N_1  and  CA_2
REMARK    2  A    between atoms: CA_2  and  C_3
REMARK    3  A    between atoms: CA_2  and  CB_5
REMARK    4  A    between atoms: C_3  and  OXT_12
REMARK    5  A    between atoms: CB_5  and  CG_6
REMARK                            x       y       z     vdW  Elec       q    Type
REMARK                         _______ _______ _______ _____ _____    ______ ____
ROOT
ATOM      1  CA  PHE B   1      -2.830  13.867  -1.309  0.00  0.00    +0.000 C 
ENDROOT
BRANCH   1   2
ATOM      2  N   PHE B   1      -2.660  14.192  -2.722  0.00  0.00    +0.000 NA
ATOM      3  H   PHE B   1      -3.571  14.202  -3.181  0.00  0.00    +0.000 HD
ATOM      4  H   PHE B   1      -2.065  13.491  -3.163  0.00  0.00    +0.000 HD
ENDBRANCH   1   2
BRANCH   1   5
ATOM      5  C   PHE B   1      -3.743  14.920  -0.632  0.00  0.00    +0.000 C 
ATOM      6  O   PHE B   1      -4.275  15.808  -1.305  0.00  0.00    +0.000 OA
BRANCH   5   7
ATOM      7  OXT PHE B   1      -3.924  14.856   0.590  0.00  0.00    +0.000 OA
ATOM      8  H   PHE B   1      -3.514  14.177   1.089  0.00  0.00    +0.000 HD
ENDBRANCH   5   7
ENDBRANCH   1   5
BRANCH   1   9
ATOM      9  CB  PHE B   1      -1.482  13.843  -0.586  0.00  0.00    +0.000 C 
BRANCH   9  10
ATOM     10  CG  PHE B   1      -0.538  12.830  -1.168  0.00  0.00    +0.000 A 
ATOM     11  CD1 PHE B   1      -0.830  11.478  -1.067  0.00  0.00    +0.000 A 
ATOM     12  CD2 PHE B   1       0.620  13.254  -1.785  0.00  0.00    +0.000 A 
ATOM     13  CE1 PHE B   1       0.049  10.535  -1.583  0.00  0.00    +0.000 A 
ATOM     14  CE2 PHE B   1       1.499  12.307  -2.319  0.00  0.00    +0.000 A 
ATOM     15  CZ  PHE B   1       1.224  10.944  -2.214  0.00  0.00    +0.000 A 
ENDBRANCH   9  10
ENDBRANCH   1   9
TORSDOF 5
