REMARK  Name = /storage/kiran-stuff/aaRS/phase2/energy_scoring/vina_182jobs/modern_thrrs_PHE_PHE/ligand.h.pdb
REMARK  5 active torsions:
REMARK  status: ('A' for Active; 'I' for Inactive)
REMARK    1  A    between atoms: N_1  and  CA_2
REMARK    2  A    between atoms: CA_2  and  C_3
REMARK    3  A    between atoms: CA_2  and  CB_5
REMARK    4  A    between atoms: C_3  and  OXT_12
REMARK    5  A    between atoms: CB_5  and  CG_6
REMARK                            x       y       z     vdW  Elec       q    Type
REMARK                         _______ _______ _______ _____ _____    ______ ____
ROOT
ATOM      1  CA  PHE B   1      -3.371  14.588  -1.747  0.00  0.00    +0.000 C 
ENDROOT
BRANCH   1   2
ATOM      2  N   PHE B   1      -3.581  15.315  -2.996  0.00  0.00    +0.000 NA
ATOM      3  H   PHE B   1      -4.541  15.177  -3.313  0.00  0.00    +0.000 HD
ATOM      4  H   PHE B   1      -2.936  14.966  -3.705  0.00  0.00    +0.000 HD
ENDBRANCH   1   2
BRANCH   1   5
ATOM      5  C   PHE B   1      -4.356  15.102  -0.667  0.00  0.00    +0.000 C 
ATOM      6  O   PHE B   1      -5.127  16.033  -0.919  0.00  0.00    +0.000 OA
BRANCH   5   7
ATOM      7  OXT PHE B   1      -4.351  14.567   0.448  0.00  0.00    +0.000 OA
ATOM      8  H   PHE B   1      -3.761  13.861   0.626  0.00  0.00    +0.000 HD
ENDBRANCH   5   7
ENDBRANCH   1   5
BRANCH   1   9
ATOM      9  CB  PHE B   1      -1.940  14.773  -1.240  0.00  0.00    +0.000 C 
BRANCH   9  10
ATOM     10  CG  PHE B   1      -1.024  13.674  -1.698  0.00  0.00    +0.000 A 
ATOM     11  CD1 PHE B   1      -1.524  12.394  -1.888  0.00  0.00    +0.000 A 
ATOM     12  CD2 PHE B   1       0.311  13.944  -1.911  0.00  0.00    +0.000 A 
ATOM     13  CE1 PHE B   1      -0.679  11.368  -2.290  0.00  0.00    +0.000 A 
ATOM     14  CE2 PHE B   1       1.161  12.917  -2.331  0.00  0.00    +0.000 A 
ATOM     15  CZ  PHE B   1       0.674  11.623  -2.514  0.00  0.00    +0.000 A 
ENDBRANCH   9  10
ENDBRANCH   1   9
TORSDOF 5
