REMARK  Name = /storage/kiran-stuff/aaRS/phase2/energy_scoring/vina_182jobs/anc_thrrs_cat_SER_SER/ligand.h.pdb
REMARK  5 active torsions:
REMARK  status: ('A' for Active; 'I' for Inactive)
REMARK    1  A    between atoms: N_1  and  CA_2
REMARK    2  A    between atoms: CA_2  and  C_3
REMARK    3  A    between atoms: CA_2  and  CB_5
REMARK    4  A    between atoms: C_3  and  O_4
REMARK    5  A    between atoms: CB_5  and  OG_6
REMARK                            x       y       z     vdW  Elec       q    Type
REMARK                         _______ _______ _______ _____ _____    ______ ____
ROOT
ATOM      1  CA  SER B   1      -4.322   0.097   7.836  0.00  0.00    +0.000 C 
ENDROOT
BRANCH   1   2
ATOM      2  N   SER B   1      -3.788  -0.069   9.182  0.00  0.00    +0.000 NA
ATOM      3  H   SER B   1      -4.467   0.272   9.861  0.00  0.00    +0.000 HD
ATOM      4  H   SER B   1      -2.922   0.461   9.272  0.00  0.00    +0.000 HD
ENDBRANCH   1   2
BRANCH   1   5
ATOM      5  C   SER B   1      -3.339  -0.398   6.810  0.00  0.00    +0.000 C 
ATOM      6  OXT SER B   1      -2.142  -0.228   7.014  0.00  0.00    +0.000 OA
BRANCH   5   7
ATOM      7  O   SER B   1      -3.733  -0.980   5.785  0.00  0.00    +0.000 OA
ATOM      8  H   SER B   1      -4.650  -1.103   5.640  0.00  0.00    +0.000 HD
ENDBRANCH   5   7
ENDBRANCH   1   5
BRANCH   1   9
ATOM      9  CB  SER B   1      -4.649   1.549   7.616  0.00  0.00    +0.000 C 
BRANCH   9  10
ATOM     10  OG  SER B   1      -5.321   2.098   8.716  0.00  0.00    +0.000 OA
ATOM     11  H   SER B   1      -4.756   2.040   9.502  0.00  0.00    +0.000 HD
ENDBRANCH   9  10
ENDBRANCH   1   9
TORSDOF 5
