REMARK  Name = /storage/kiran-stuff/aaRS/phase2/energy_scoring/vina_182jobs/anc_thrrs_cat_SER_SER/ligand.h.pdb
REMARK  5 active torsions:
REMARK  status: ('A' for Active; 'I' for Inactive)
REMARK    1  A    between atoms: N_1  and  CA_2
REMARK    2  A    between atoms: CA_2  and  C_3
REMARK    3  A    between atoms: CA_2  and  CB_5
REMARK    4  A    between atoms: C_3  and  O_4
REMARK    5  A    between atoms: CB_5  and  OG_6
REMARK                            x       y       z     vdW  Elec       q    Type
REMARK                         _______ _______ _______ _____ _____    ______ ____
ROOT
ATOM      1  CA  SER B   1      -4.508   2.034   5.375  0.00  0.00    +0.000 C 
ENDROOT
BRANCH   1   2
ATOM      2  N   SER B   1      -3.329   2.891   5.364  0.00  0.00    +0.000 NA
ATOM      3  H   SER B   1      -3.573   3.799   4.969  0.00  0.00    +0.000 HD
ATOM      4  H   SER B   1      -2.600   2.459   4.797  0.00  0.00    +0.000 HD
ENDBRANCH   1   2
BRANCH   1   5
ATOM      5  C   SER B   1      -4.178   0.685   5.953  0.00  0.00    +0.000 C 
ATOM      6  OXT SER B   1      -3.350  -0.013   5.378  0.00  0.00    +0.000 OA
BRANCH   5   7
ATOM      7  O   SER B   1      -4.723   0.294   6.999  0.00  0.00    +0.000 OA
ATOM      8  H   SER B   1      -5.354   0.836   7.429  0.00  0.00    +0.000 HD
ENDBRANCH   5   7
ENDBRANCH   1   5
BRANCH   1   9
ATOM      9  CB  SER B   1      -5.034   1.908   3.971  0.00  0.00    +0.000 C 
BRANCH   9  10
ATOM     10  OG  SER B   1      -5.045   3.145   3.312  0.00  0.00    +0.000 OA
ATOM     11  H   SER B   1      -4.140   3.490   3.257  0.00  0.00    +0.000 HD
ENDBRANCH   9  10
ENDBRANCH   1   9
TORSDOF 5
