REMARK  Name = /storage/kiran-stuff/aaRS/phase2/energy_scoring/vina_182jobs/anc_thrrs_cat_zn_TYR_TYR/ligand.h.pdb
REMARK  6 active torsions:
REMARK  status: ('A' for Active; 'I' for Inactive)
REMARK    1  A    between atoms: N_1  and  CA_2
REMARK    2  A    between atoms: CA_2  and  C_3
REMARK    3  A    between atoms: CA_2  and  CB_5
REMARK    4  A    between atoms: C_3  and  O_4
REMARK    5  A    between atoms: CB_5  and  CG_6
REMARK    6  A    between atoms: CZ_11  and  OH_12
REMARK                            x       y       z     vdW  Elec       q    Type
REMARK                         _______ _______ _______ _____ _____    ______ ____
ROOT
ATOM      1  CB  TYR B   1       0.800   6.741 -12.676  0.00  0.00    +0.000 C 
ENDROOT
BRANCH   1   2
ATOM      2  CG  TYR B   1       0.473   6.742 -11.233  0.00  0.00    +0.000 A 
ATOM      3  CD1 TYR B   1      -0.222   7.816 -10.645  0.00  0.00    +0.000 A 
ATOM      4  CD2 TYR B   1       0.838   5.684 -10.413  0.00  0.00    +0.000 A 
ATOM      5  CE1 TYR B   1      -0.520   7.827  -9.286  0.00  0.00    +0.000 A 
ATOM      6  CE2 TYR B   1       0.529   5.693  -9.059  0.00  0.00    +0.000 A 
ATOM      7  CZ  TYR B   1      -0.156   6.752  -8.477  0.00  0.00    +0.000 A 
BRANCH   7   8
ATOM      8  OH  TYR B   1      -0.454   6.739  -7.152  0.00  0.00    +0.000 OA
ATOM      9  H   TYR B   1      -0.916   7.458  -6.769  0.00  0.00    +0.000 HD
ENDBRANCH   7   8
ENDBRANCH   1   2
BRANCH   1  10
ATOM     10  CA  TYR B   1      -0.416   6.619 -13.624  0.00  0.00    +0.000 C 
BRANCH  10  11
ATOM     11  N   TYR B   1      -1.666   6.880 -12.939  0.00  0.00    +0.000 NA
ATOM     12  H   TYR B   1      -2.440   6.790 -13.597  0.00  0.00    +0.000 HD
ATOM     13  H   TYR B   1      -1.653   7.826 -12.557  0.00  0.00    +0.000 HD
ENDBRANCH  10  11
BRANCH  10  14
ATOM     14  C   TYR B   1      -0.471   5.250 -14.257  0.00  0.00    +0.000 C 
ATOM     15  OXT TYR B   1       0.508   4.820 -14.859  0.00  0.00    +0.000 OA
BRANCH  14  16
ATOM     16  O   TYR B   1      -1.501   4.577 -14.223  0.00  0.00    +0.000 OA
ATOM     17  H   TYR B   1      -2.254   4.896 -13.766  0.00  0.00    +0.000 HD
ENDBRANCH  14  16
ENDBRANCH  10  14
ENDBRANCH   1  10
TORSDOF 6
