REMARK  Name = /storage/kiran-stuff/aaRS/phase2/energy_scoring/vina_182jobs/modern_prors_TRP_TRP/ligand.h.pdb
REMARK  5 active torsions:
REMARK  status: ('A' for Active; 'I' for Inactive)
REMARK    1  A    between atoms: N_1  and  CA_2
REMARK    2  A    between atoms: CA_2  and  C_3
REMARK    3  A    between atoms: CA_2  and  CB_5
REMARK    4  A    between atoms: C_3  and  O_4
REMARK    5  A    between atoms: CB_5  and  CG_6
REMARK                            x       y       z     vdW  Elec       q    Type
REMARK                         _______ _______ _______ _____ _____    ______ ____
ROOT
ATOM      1  CB  TRP B   1     -10.421   6.388  -0.019  0.00  0.00    +0.000 C 
ENDROOT
BRANCH   1   2
ATOM      2  CG  TRP B   1      -9.389   5.428   0.346  0.00  0.00    +0.000 C 
ATOM      3  CD1 TRP B   1      -9.477   4.474   1.294  0.00  0.00    +0.000 C 
ATOM      4  CD2 TRP B   1      -8.081   5.297  -0.202  0.00  0.00    +0.000 A 
ATOM      5  NE1 TRP B   1      -8.346   3.764   1.368  0.00  0.00    +0.000 NA
ATOM      6  CE2 TRP B   1      -7.458   4.232   0.472  0.00  0.00    +0.000 A 
ATOM      7  CE3 TRP B   1      -7.385   5.963  -1.190  0.00  0.00    +0.000 A 
ATOM      8  CZ2 TRP B   1      -6.154   3.840   0.168  0.00  0.00    +0.000 A 
ATOM      9  CZ3 TRP B   1      -6.089   5.579  -1.482  0.00  0.00    +0.000 A 
ATOM     10  CH2 TRP B   1      -5.480   4.529  -0.811  0.00  0.00    +0.000 A 
ENDBRANCH   1   2
BRANCH   1  11
ATOM     11  CA  TRP B   1     -11.126   6.991   1.240  0.00  0.00    +0.000 C 
BRANCH  11  12
ATOM     12  N   TRP B   1     -11.816   8.222   0.894  0.00  0.00    +0.000 NA
ATOM     13  H   TRP B   1     -12.498   8.034   0.159  0.00  0.00    +0.000 HD
ATOM     14  H   TRP B   1     -11.139   8.909   0.562  0.00  0.00    +0.000 HD
ENDBRANCH  11  12
BRANCH  11  15
ATOM     15  C   TRP B   1     -10.121   7.296   2.330  0.00  0.00    +0.000 C 
ATOM     16  OXT TRP B   1      -9.080   7.899   2.070  0.00  0.00    +0.000 OA
BRANCH  15  17
ATOM     17  O   TRP B   1     -10.357   6.937   3.503  0.00  0.00    +0.000 OA
ATOM     18  H   TRP B   1     -11.149   6.478   3.702  0.00  0.00    +0.000 HD
ENDBRANCH  15  17
ENDBRANCH  11  15
ENDBRANCH   1  11
TORSDOF 5
