REMARK  Name = /storage/kiran-stuff/aaRS/phase2/energy_scoring/vina_182jobs/modern_thrrs_ecoli_zn_ASP_ASP/ligand.h.pdb
REMARK  6 active torsions:
REMARK  status: ('A' for Active; 'I' for Inactive)
REMARK    1  A    between atoms: N_1  and  CA_2
REMARK    2  A    between atoms: CA_2  and  C_3
REMARK    3  A    between atoms: CA_2  and  CB_5
REMARK    4  A    between atoms: C_3  and  OXT_9
REMARK    5  A    between atoms: CB_5  and  CG_6
REMARK    6  A    between atoms: CG_6  and  OD2_8
REMARK                            x       y       z     vdW  Elec       q    Type
REMARK                         _______ _______ _______ _____ _____    ______ ____
ROOT
ATOM      1  CA  ASP B   1      -7.318  -4.751   9.635  0.00  0.00    +0.000 C 
ENDROOT
BRANCH   1   2
ATOM      2  N   ASP B   1      -7.331  -3.391  10.165  0.00  0.00    +0.000 NA
ATOM      3  H   ASP B   1      -7.591  -2.740   9.425  0.00  0.00    +0.000 HD
ATOM      4  H   ASP B   1      -6.403  -3.153  10.517  0.00  0.00    +0.000 HD
ENDBRANCH   1   2
BRANCH   1   5
ATOM      5  C   ASP B   1      -8.702  -5.107   9.118  0.00  0.00    +0.000 C 
ATOM      6  O   ASP B   1      -8.927  -5.124   7.907  0.00  0.00    +0.000 OA
BRANCH   5   7
ATOM      7  OXT ASP B   1      -9.592  -5.371   9.908  0.00  0.00    +0.000 OA
ATOM      8  H   ASP B   1      -9.419  -5.357  10.829  0.00  0.00    +0.000 HD
ENDBRANCH   5   7
ENDBRANCH   1   5
BRANCH   1   9
ATOM      9  CB  ASP B   1      -6.934  -5.741  10.718  0.00  0.00    +0.000 C 
BRANCH   9  10
ATOM     10  CG  ASP B   1      -5.529  -5.562  11.287  0.00  0.00    +0.000 C 
ATOM     11  OD1 ASP B   1      -4.668  -5.056  10.559  0.00  0.00    +0.000 OA
BRANCH  10  12
ATOM     12  OD2 ASP B   1      -5.303  -5.928  12.447  0.00  0.00    +0.000 OA
ATOM     13  H   ASP B   1      -5.989  -6.306  12.960  0.00  0.00    +0.000 HD
ENDBRANCH  10  12
ENDBRANCH   9  10
ENDBRANCH   1   9
TORSDOF 6
