REMARK  Name = /storage/kiran-stuff/aaRS/phase2/energy_scoring/vina_182jobs/modern_thrrs_ecoli_zn_ASP_ASP/ligand.h.pdb
REMARK  6 active torsions:
REMARK  status: ('A' for Active; 'I' for Inactive)
REMARK    1  A    between atoms: N_1  and  CA_2
REMARK    2  A    between atoms: CA_2  and  C_3
REMARK    3  A    between atoms: CA_2  and  CB_5
REMARK    4  A    between atoms: C_3  and  OXT_9
REMARK    5  A    between atoms: CB_5  and  CG_6
REMARK    6  A    between atoms: CG_6  and  OD2_8
REMARK                            x       y       z     vdW  Elec       q    Type
REMARK                         _______ _______ _______ _____ _____    ______ ____
ROOT
ATOM      1  CA  ASP B   1      -7.717  -4.428   9.919  0.00  0.00    +0.000 C 
ENDROOT
BRANCH   1   2
ATOM      2  N   ASP B   1      -7.387  -3.159  10.561  0.00  0.00    +0.000 NA
ATOM      3  H   ASP B   1      -7.581  -2.392   9.918  0.00  0.00    +0.000 HD
ATOM      4  H   ASP B   1      -6.398  -3.151  10.811  0.00  0.00    +0.000 HD
ENDBRANCH   1   2
BRANCH   1   5
ATOM      5  C   ASP B   1      -9.192  -4.442   9.552  0.00  0.00    +0.000 C 
ATOM      6  O   ASP B   1      -9.568  -3.989   8.470  0.00  0.00    +0.000 OA
BRANCH   5   7
ATOM      7  OXT ASP B   1     -10.004  -4.900  10.337  0.00  0.00    +0.000 OA
ATOM      8  H   ASP B   1      -9.717  -5.244  11.160  0.00  0.00    +0.000 HD
ENDBRANCH   5   7
ENDBRANCH   1   5
BRANCH   1   9
ATOM      9  CB  ASP B   1      -7.437  -5.587  10.856  0.00  0.00    +0.000 C 
BRANCH   9  10
ATOM     10  CG  ASP B   1      -5.975  -5.750  11.262  0.00  0.00    +0.000 C 
ATOM     11  OD1 ASP B   1      -5.121  -5.134  10.615  0.00  0.00    +0.000 OA
BRANCH  10  12
ATOM     12  OD2 ASP B   1      -5.699  -6.488  12.215  0.00  0.00    +0.000 OA
ATOM     13  H   ASP B   1      -6.382  -6.934  12.675  0.00  0.00    +0.000 HD
ENDBRANCH  10  12
ENDBRANCH   9  10
ENDBRANCH   1   9
TORSDOF 6
