REMARK  Name = /storage/kiran-stuff/aaRS/phase2/energy_scoring/vina_182jobs/modern_thrrs_GLY_GLY/ligand.h.pdb
REMARK  3 active torsions:
REMARK  status: ('A' for Active; 'I' for Inactive)
REMARK    1  A    between atoms: N_1  and  CA_2
REMARK    2  A    between atoms: CA_2  and  C_3
REMARK    3  A    between atoms: C_3  and  OXT_5
REMARK                            x       y       z     vdW  Elec       q    Type
REMARK                         _______ _______ _______ _____ _____    ______ ____
ROOT
ATOM      1  CA  GLY B   1       1.222  17.817  -1.978  0.00  0.00    +0.000 C 
ENDROOT
BRANCH   1   2
ATOM      2  N   GLY B   1       0.158  17.443  -1.039  0.00  0.00    +0.000 NA
ATOM      3  H   GLY B   1       0.245  17.998  -0.188  0.00  0.00    +0.000 HD
ATOM      4  H   GLY B   1       0.240  16.453  -0.809  0.00  0.00    +0.000 HD
ENDBRANCH   1   2
BRANCH   1   5
ATOM      5  C   GLY B   1       1.102  16.996  -3.249  0.00  0.00    +0.000 C 
ATOM      6  O   GLY B   1       0.133  17.160  -4.015  0.00  0.00    +0.000 OA
BRANCH   5   7
ATOM      7  OXT GLY B   1       1.954  16.130  -3.510  0.00  0.00    +0.000 OA
ATOM      8  H   GLY B   1       2.684  16.003  -2.936  0.00  0.00    +0.000 HD
ENDBRANCH   5   7
ENDBRANCH   1   5
TORSDOF 3
