REMARK  Name = /storage/kiran-stuff/aaRS/phase2/energy_scoring/vina_182jobs/modern_thrrs_GLY_GLY/ligand.h.pdb
REMARK  3 active torsions:
REMARK  status: ('A' for Active; 'I' for Inactive)
REMARK    1  A    between atoms: N_1  and  CA_2
REMARK    2  A    between atoms: CA_2  and  C_3
REMARK    3  A    between atoms: C_3  and  OXT_5
REMARK                            x       y       z     vdW  Elec       q    Type
REMARK                         _______ _______ _______ _____ _____    ______ ____
ROOT
ATOM      1  CA  GLY B   1      -0.929  16.496  -2.952  0.00  0.00    +0.000 C 
ENDROOT
BRANCH   1   2
ATOM      2  N   GLY B   1      -0.517  16.202  -4.330  0.00  0.00    +0.000 NA
ATOM      3  H   GLY B   1      -1.327  15.897  -4.869  0.00  0.00    +0.000 HD
ATOM      4  H   GLY B   1       0.185  15.462  -4.324  0.00  0.00    +0.000 HD
ENDBRANCH   1   2
BRANCH   1   5
ATOM      5  C   GLY B   1       0.271  16.951  -2.140  0.00  0.00    +0.000 C 
ATOM      6  O   GLY B   1       0.800  18.056  -2.364  0.00  0.00    +0.000 OA
BRANCH   5   7
ATOM      7  OXT GLY B   1       0.751  16.202  -1.272  0.00  0.00    +0.000 OA
ATOM      8  H   GLY B   1       0.356  15.370  -1.101  0.00  0.00    +0.000 HD
ENDBRANCH   5   7
ENDBRANCH   1   5
TORSDOF 3
