REMARK  Name = /storage/kiran-stuff/aaRS/phase2/energy_scoring/vina_182jobs/anc_thrrs_cat_zn_LYS_LYS/ligand.h.pdb
REMARK  8 active torsions:
REMARK  status: ('A' for Active; 'I' for Inactive)
REMARK    1  A    between atoms: N_1  and  CA_2
REMARK    2  A    between atoms: CA_2  and  C_3
REMARK    3  A    between atoms: CA_2  and  CB_5
REMARK    4  A    between atoms: C_3  and  O_4
REMARK    5  A    between atoms: CB_5  and  CG_6
REMARK    6  A    between atoms: CG_6  and  CD_7
REMARK    7  A    between atoms: CD_7  and  CE_8
REMARK    8  A    between atoms: CE_8  and  NZ_9
REMARK                            x       y       z     vdW  Elec       q    Type
REMARK                         _______ _______ _______ _____ _____    ______ ____
ROOT
ATOM      1  CA  LYS B   1      -4.606  -0.787   6.478  0.00  0.00    +0.000 C 
ENDROOT
BRANCH   1   2
ATOM      2  N   LYS B   1      -3.533  -1.732   6.636  0.00  0.00    +0.000 NA
ATOM      3  H   LYS B   1      -2.673  -1.234   6.865  0.00  0.00    +0.000 HD
ATOM      4  H   LYS B   1      -3.405  -2.250   5.767  0.00  0.00    +0.000 HD
ENDBRANCH   1   2
BRANCH   1   5
ATOM      5  C   LYS B   1      -5.900  -1.504   6.136  0.00  0.00    +0.000 C 
ATOM      6  OXT LYS B   1      -6.721  -0.940   5.432  0.00  0.00    +0.000 OA
BRANCH   5   7
ATOM      7  O   LYS B   1      -6.138  -2.626   6.577  0.00  0.00    +0.000 OA
ATOM      8  H   LYS B   1      -5.508  -3.060   7.118  0.00  0.00    +0.000 HD
ENDBRANCH   5   7
ENDBRANCH   1   5
BRANCH   1   9
ATOM      9  CB  LYS B   1      -4.252   0.244   5.420  0.00  0.00    +0.000 C 
BRANCH   9  10
ATOM     10  CG  LYS B   1      -3.133   1.161   5.848  0.00  0.00    +0.000 C 
BRANCH  10  11
ATOM     11  CD  LYS B   1      -2.801   2.154   4.750  0.00  0.00    +0.000 C 
BRANCH  11  12
ATOM     12  CE  LYS B   1      -1.707   3.111   5.213  0.00  0.00    +0.000 C 
BRANCH  12  13
ATOM     13  NZ  LYS B   1      -1.495   4.173   4.204  0.00  0.00    +0.000 NA
ATOM     14  H   LYS B   1      -2.360   4.699   4.077  0.00  0.00    +0.000 HD
ATOM     15  H   LYS B   1      -1.221   3.750   3.317  0.00  0.00    +0.000 HD
ENDBRANCH  12  13
ENDBRANCH  11  12
ENDBRANCH  10  11
ENDBRANCH   9  10
ENDBRANCH   1   9
TORSDOF 8
