REMARK  Name = /storage/kiran-stuff/aaRS/phase2/energy_scoring/vina_182jobs/modern_thrrs_ASP_ASP/ligand.h.pdb
REMARK  6 active torsions:
REMARK  status: ('A' for Active; 'I' for Inactive)
REMARK    1  A    between atoms: N_1  and  CA_2
REMARK    2  A    between atoms: CA_2  and  C_3
REMARK    3  A    between atoms: CA_2  and  CB_5
REMARK    4  A    between atoms: C_3  and  OXT_9
REMARK    5  A    between atoms: CB_5  and  CG_6
REMARK    6  A    between atoms: CG_6  and  OD2_8
REMARK                            x       y       z     vdW  Elec       q    Type
REMARK                         _______ _______ _______ _____ _____    ______ ____
ROOT
ATOM      1  CA  ASP B   1       0.958  19.308  -7.324  0.00  0.00    +0.000 C 
ENDROOT
BRANCH   1   2
ATOM      2  N   ASP B   1      -0.130  18.423  -7.767  0.00  0.00    +0.000 NA
ATOM      3  H   ASP B   1      -0.073  18.293  -8.777  0.00  0.00    +0.000 HD
ATOM      4  H   ASP B   1      -1.028  18.843  -7.528  0.00  0.00    +0.000 HD
ENDBRANCH   1   2
BRANCH   1   5
ATOM      5  C   ASP B   1       0.902  19.522  -5.822  0.00  0.00    +0.000 C 
ATOM      6  O   ASP B   1      -0.172  19.805  -5.283  0.00  0.00    +0.000 OA
BRANCH   5   7
ATOM      7  OXT ASP B   1       1.949  19.436  -5.163  0.00  0.00    +0.000 OA
ATOM      8  H   ASP B   1       2.755  19.220  -5.590  0.00  0.00    +0.000 HD
ENDBRANCH   5   7
ENDBRANCH   1   5
BRANCH   1   9
ATOM      9  CB  ASP B   1       0.876  20.655  -8.020  0.00  0.00    +0.000 C 
BRANCH   9  10
ATOM     10  CG  ASP B   1       0.903  20.539  -9.533  0.00  0.00    +0.000 C 
ATOM     11  OD1 ASP B   1       0.462  21.508 -10.191  0.00  0.00    +0.000 OA
BRANCH  10  12
ATOM     12  OD2 ASP B   1       1.352  19.531 -10.049  0.00  0.00    +0.000 OA
ATOM     13  H   ASP B   1       1.671  18.832  -9.512  0.00  0.00    +0.000 HD
ENDBRANCH  10  12
ENDBRANCH   9  10
ENDBRANCH   1   9
TORSDOF 6
