REMARK  Name = /storage/kiran-stuff/aaRS/phase2/energy_scoring/vina_182jobs/modern_thrrs_ASP_ASP/ligand.h.pdb
REMARK  6 active torsions:
REMARK  status: ('A' for Active; 'I' for Inactive)
REMARK    1  A    between atoms: N_1  and  CA_2
REMARK    2  A    between atoms: CA_2  and  C_3
REMARK    3  A    between atoms: CA_2  and  CB_5
REMARK    4  A    between atoms: C_3  and  OXT_9
REMARK    5  A    between atoms: CB_5  and  CG_6
REMARK    6  A    between atoms: CG_6  and  OD2_8
REMARK                            x       y       z     vdW  Elec       q    Type
REMARK                         _______ _______ _______ _____ _____    ______ ____
ROOT
ATOM      1  CA  ASP B   1       0.525  19.443  -7.423  0.00  0.00    +0.000 C 
ENDROOT
BRANCH   1   2
ATOM      2  N   ASP B   1      -0.577  18.597  -7.906  0.00  0.00    +0.000 NA
ATOM      3  H   ASP B   1      -0.484  18.457  -8.912  0.00  0.00    +0.000 HD
ATOM      4  H   ASP B   1      -1.467  19.053  -7.707  0.00  0.00    +0.000 HD
ENDBRANCH   1   2
BRANCH   1   5
ATOM      5  C   ASP B   1       0.416  19.670  -5.926  0.00  0.00    +0.000 C 
ATOM      6  O   ASP B   1      -0.176  20.666  -5.500  0.00  0.00    +0.000 OA
BRANCH   5   7
ATOM      7  OXT ASP B   1       0.951  18.861  -5.154  0.00  0.00    +0.000 OA
ATOM      8  H   ASP B   1       1.395  18.110  -5.497  0.00  0.00    +0.000 HD
ENDBRANCH   5   7
ENDBRANCH   1   5
BRANCH   1   9
ATOM      9  CB  ASP B   1       0.524  20.786  -8.131  0.00  0.00    +0.000 C 
BRANCH   9  10
ATOM     10  CG  ASP B   1       0.662  20.660  -9.637  0.00  0.00    +0.000 C 
ATOM     11  OD1 ASP B   1       0.061  21.502 -10.341  0.00  0.00    +0.000 OA
BRANCH  10  12
ATOM     12  OD2 ASP B   1       1.346  19.766 -10.103  0.00  0.00    +0.000 OA
ATOM     13  H   ASP B   1       1.776  19.159  -9.533  0.00  0.00    +0.000 HD
ENDBRANCH  10  12
ENDBRANCH   9  10
ENDBRANCH   1   9
TORSDOF 6
