REMARK  Name = /storage/kiran-stuff/aaRS/phase2/energy_scoring/vina_182jobs/anc_prors_edit_PRO_PRO/ligand.h.pdb
REMARK  2 active torsions:
REMARK  status: ('A' for Active; 'I' for Inactive)
REMARK    1  A    between atoms: CA_2  and  C_3
REMARK    2  A    between atoms: C_3  and  OXT_8
REMARK                            x       y       z     vdW  Elec       q    Type
REMARK                         _______ _______ _______ _____ _____    ______ ____
ROOT
ATOM      1  N   PRO B   1       6.724  -5.487  -8.598  0.00  0.00    +0.000 NA
ATOM      2  CA  PRO B   1       7.655  -5.890  -9.651  0.00  0.00    +0.000 C 
ATOM      3  CB  PRO B   1       7.065  -7.139 -10.219  0.00  0.00    +0.000 C 
ATOM      4  CG  PRO B   1       5.799  -7.386  -9.533  0.00  0.00    +0.000 C 
ATOM      5  CD  PRO B   1       5.744  -6.492  -8.369  0.00  0.00    +0.000 C 
ATOM      6  H   PRO B   1       6.257  -4.624  -8.878  0.00  0.00    +0.000 HD
ENDROOT
BRANCH   2   7
ATOM      7  C   PRO B   1       7.797  -4.814 -10.723  0.00  0.00    +0.000 C 
ATOM      8  O   PRO B   1       6.800  -4.259 -11.161  0.00  0.00    +0.000 OA
BRANCH   7   9
ATOM      9  OXT PRO B   1       8.939  -4.536 -11.137  0.00  0.00    +0.000 OA
ATOM     10  H   PRO B   1       9.686  -4.977 -10.783  0.00  0.00    +0.000 HD
ENDBRANCH   7   9
ENDBRANCH   2   7
TORSDOF 2
