REMARK  Name = /storage/kiran-stuff/aaRS/phase2/energy_scoring/vina_182jobs/anc_prors_edit_PRO_PRO/ligand.h.pdb
REMARK  2 active torsions:
REMARK  status: ('A' for Active; 'I' for Inactive)
REMARK    1  A    between atoms: CA_2  and  C_3
REMARK    2  A    between atoms: C_3  and  OXT_8
REMARK                            x       y       z     vdW  Elec       q    Type
REMARK                         _______ _______ _______ _____ _____    ______ ____
ROOT
ATOM      1  N   PRO B   1       6.898  -5.613  -8.103  0.00  0.00    +0.000 NA
ATOM      2  CA  PRO B   1       7.645  -5.808  -9.344  0.00  0.00    +0.000 C 
ATOM      3  CB  PRO B   1       7.078  -7.058  -9.934  0.00  0.00    +0.000 C 
ATOM      4  CG  PRO B   1       5.995  -7.510  -9.065  0.00  0.00    +0.000 C 
ATOM      5  CD  PRO B   1       6.078  -6.740  -7.817  0.00  0.00    +0.000 C 
ATOM      6  H   PRO B   1       6.307  -4.786  -8.196  0.00  0.00    +0.000 HD
ENDROOT
BRANCH   2   7
ATOM      7  C   PRO B   1       7.479  -4.628 -10.296  0.00  0.00    +0.000 C 
ATOM      8  O   PRO B   1       6.468  -4.536 -10.978  0.00  0.00    +0.000 OA
BRANCH   7   9
ATOM      9  OXT PRO B   1       8.395  -3.786 -10.364  0.00  0.00    +0.000 OA
ATOM     10  H   PRO B   1       9.159  -3.881  -9.829  0.00  0.00    +0.000 HD
ENDBRANCH   7   9
ENDBRANCH   2   7
TORSDOF 2
