REMARK  Name = /storage/kiran-stuff/aaRS/phase2/energy_scoring/vina_182jobs/modern_thrrs_TYR_TYR/ligand.h.pdb
REMARK  6 active torsions:
REMARK  status: ('A' for Active; 'I' for Inactive)
REMARK    1  A    between atoms: N_1  and  CA_2
REMARK    2  A    between atoms: CA_2  and  C_3
REMARK    3  A    between atoms: CA_2  and  CB_5
REMARK    4  A    between atoms: C_3  and  OXT_13
REMARK    5  A    between atoms: CB_5  and  CG_6
REMARK    6  A    between atoms: CZ_11  and  OH_12
REMARK                            x       y       z     vdW  Elec       q    Type
REMARK                         _______ _______ _______ _____ _____    ______ ____
ROOT
ATOM      1  CB  TYR B   1       8.128  17.814  -3.953  0.00  0.00    +0.000 C 
ENDROOT
BRANCH   1   2
ATOM      2  CG  TYR B   1       7.199  16.678  -3.713  0.00  0.00    +0.000 A 
ATOM      3  CD1 TYR B   1       7.032  16.171  -2.422  0.00  0.00    +0.000 A 
ATOM      4  CD2 TYR B   1       6.475  16.132  -4.762  0.00  0.00    +0.000 A 
ATOM      5  CE1 TYR B   1       6.166  15.111  -2.184  0.00  0.00    +0.000 A 
ATOM      6  CE2 TYR B   1       5.605  15.071  -4.538  0.00  0.00    +0.000 A 
ATOM      7  CZ  TYR B   1       5.441  14.547  -3.251  0.00  0.00    +0.000 A 
BRANCH   7   8
ATOM      8  OH  TYR B   1       4.604  13.513  -3.036  0.00  0.00    +0.000 OA
ATOM      9  H   TYR B   1       4.125  13.143  -3.751  0.00  0.00    +0.000 HD
ENDBRANCH   7   8
ENDBRANCH   1   2
BRANCH   1  10
ATOM     10  CA  TYR B   1       7.348  19.065  -4.367  0.00  0.00    +0.000 C 
BRANCH  10  11
ATOM     11  N   TYR B   1       7.002  19.040  -5.778  0.00  0.00    +0.000 NA
ATOM     12  H   TYR B   1       6.486  19.886  -6.017  0.00  0.00    +0.000 HD
ATOM     13  H   TYR B   1       6.423  18.223  -5.972  0.00  0.00    +0.000 HD
ENDBRANCH  10  11
BRANCH  10  14
ATOM     14  C   TYR B   1       8.185  20.326  -4.058  0.00  0.00    +0.000 C 
ATOM     15  O   TYR B   1       7.818  21.401  -4.534  0.00  0.00    +0.000 OA
BRANCH  14  16
ATOM     16  OXT TYR B   1       9.194  20.264  -3.356  0.00  0.00    +0.000 OA
ATOM     17  H   TYR B   1       9.466  19.442  -2.998  0.00  0.00    +0.000 HD
ENDBRANCH  14  16
ENDBRANCH  10  14
ENDBRANCH   1  10
TORSDOF 6
