REMARK  Name = /storage/kiran-stuff/aaRS/phase2/energy_scoring/vina_182jobs/modern_thrrs_TYR_TYR/ligand.h.pdb
REMARK  6 active torsions:
REMARK  status: ('A' for Active; 'I' for Inactive)
REMARK    1  A    between atoms: N_1  and  CA_2
REMARK    2  A    between atoms: CA_2  and  C_3
REMARK    3  A    between atoms: CA_2  and  CB_5
REMARK    4  A    between atoms: C_3  and  OXT_13
REMARK    5  A    between atoms: CB_5  and  CG_6
REMARK    6  A    between atoms: CZ_11  and  OH_12
REMARK                            x       y       z     vdW  Elec       q    Type
REMARK                         _______ _______ _______ _____ _____    ______ ____
ROOT
ATOM      1  CB  TYR B   1       7.309  17.007  -3.756  0.00  0.00    +0.000 C 
ENDROOT
BRANCH   1   2
ATOM      2  CG  TYR B   1       6.577  15.761  -3.406  0.00  0.00    +0.000 A 
ATOM      3  CD1 TYR B   1       6.096  15.573  -2.108  0.00  0.00    +0.000 A 
ATOM      4  CD2 TYR B   1       6.346  14.790  -4.369  0.00  0.00    +0.000 A 
ATOM      5  CE1 TYR B   1       5.409  14.414  -1.768  0.00  0.00    +0.000 A 
ATOM      6  CE2 TYR B   1       5.660  13.626  -4.042  0.00  0.00    +0.000 A 
ATOM      7  CZ  TYR B   1       5.186  13.422  -2.741  0.00  0.00    +0.000 A 
BRANCH   7   8
ATOM      8  OH  TYR B   1       4.529  12.290  -2.424  0.00  0.00    +0.000 OA
ATOM      9  H   TYR B   1       4.384  11.634  -3.077  0.00  0.00    +0.000 HD
ENDBRANCH   7   8
ENDBRANCH   1   2
BRANCH   1  10
ATOM     10  CA  TYR B   1       6.325  18.148  -4.027  0.00  0.00    +0.000 C 
BRANCH  10  11
ATOM     11  N   TYR B   1       5.407  17.822  -5.105  0.00  0.00    +0.000 NA
ATOM     12  H   TYR B   1       4.769  18.603  -5.256  0.00  0.00    +0.000 HD
ATOM     13  H   TYR B   1       4.872  16.990  -4.856  0.00  0.00    +0.000 HD
ENDBRANCH  10  11
BRANCH  10  14
ATOM     14  C   TYR B   1       7.104  19.435  -4.377  0.00  0.00    +0.000 C 
ATOM     15  O   TYR B   1       6.494  20.357  -4.919  0.00  0.00    +0.000 OA
BRANCH  14  16
ATOM     16  OXT TYR B   1       8.303  19.542  -4.124  0.00  0.00    +0.000 OA
ATOM     17  H   TYR B   1       8.760  18.835  -3.711  0.00  0.00    +0.000 HD
ENDBRANCH  14  16
ENDBRANCH  10  14
ENDBRANCH   1  10
TORSDOF 6
