REMARK  Name = /storage/kiran-stuff/aaRS/phase2/energy_scoring/vina_182jobs/modern_thrrs_ecoli_zn_GLY_GLY/ligand.h.pdb
REMARK  3 active torsions:
REMARK  status: ('A' for Active; 'I' for Inactive)
REMARK    1  A    between atoms: N_1  and  CA_2
REMARK    2  A    between atoms: CA_2  and  C_3
REMARK    3  A    between atoms: C_3  and  OXT_5
REMARK                            x       y       z     vdW  Elec       q    Type
REMARK                         _______ _______ _______ _____ _____    ______ ____
ROOT
ATOM      1  CA  GLY B   1      -2.414  -0.989  11.803  0.00  0.00    +0.000 C 
ENDROOT
BRANCH   1   2
ATOM      2  N   GLY B   1      -1.406  -0.051  12.165  0.00  0.00    +0.000 NA
ATOM      3  H   GLY B   1      -1.739   0.525  12.939  0.00  0.00    +0.000 HD
ATOM      4  H   GLY B   1      -1.193   0.545  11.365  0.00  0.00    +0.000 HD
ENDBRANCH   1   2
BRANCH   1   5
ATOM      5  C   GLY B   1      -1.997  -1.870  10.673  0.00  0.00    +0.000 C 
ATOM      6  O   GLY B   1      -2.667  -2.877  10.408  0.00  0.00    +0.000 OA
BRANCH   5   7
ATOM      7  OXT GLY B   1      -0.987  -1.598  10.009  0.00  0.00    +0.000 OA
ATOM      8  H   GLY B   1      -0.484  -0.835  10.214  0.00  0.00    +0.000 HD
ENDBRANCH   5   7
ENDBRANCH   1   5
TORSDOF 3
