REMARK  Name = /storage/kiran-stuff/aaRS/phase2/energy_scoring/vina_182jobs/modern_thrrs_ecoli_zn_GLY_GLY/ligand.h.pdb
REMARK  3 active torsions:
REMARK  status: ('A' for Active; 'I' for Inactive)
REMARK    1  A    between atoms: N_1  and  CA_2
REMARK    2  A    between atoms: CA_2  and  C_3
REMARK    3  A    between atoms: C_3  and  OXT_5
REMARK                            x       y       z     vdW  Elec       q    Type
REMARK                         _______ _______ _______ _____ _____    ______ ____
ROOT
ATOM      1  CA  GLY B   1      -2.670  -1.056  12.398  0.00  0.00    +0.000 C 
ENDROOT
BRANCH   1   2
ATOM      2  N   GLY B   1      -1.836  -0.403  13.349  0.00  0.00    +0.000 NA
ATOM      3  H   GLY B   1      -2.412  -0.013  14.095  0.00  0.00    +0.000 HD
ATOM      4  H   GLY B   1      -1.320   0.348  12.890  0.00  0.00    +0.000 HD
ENDBRANCH   1   2
BRANCH   1   5
ATOM      5  C   GLY B   1      -1.895  -1.654  11.271  0.00  0.00    +0.000 C 
ATOM      6  O   GLY B   1      -2.466  -2.412  10.475  0.00  0.00    +0.000 OA
BRANCH   5   7
ATOM      7  OXT GLY B   1      -0.691  -1.397  11.136  0.00  0.00    +0.000 OA
ATOM      8  H   GLY B   1      -0.264  -0.823  11.741  0.00  0.00    +0.000 HD
ENDBRANCH   5   7
ENDBRANCH   1   5
TORSDOF 3
