REMARK  Name = /storage/kiran-stuff/aaRS/phase2/energy_scoring/vina_182jobs/anc_prors_cat_LYS_LYS/ligand.h.pdb
REMARK  8 active torsions:
REMARK  status: ('A' for Active; 'I' for Inactive)
REMARK    1  A    between atoms: N_1  and  CA_2
REMARK    2  A    between atoms: CA_2  and  C_3
REMARK    3  A    between atoms: CA_2  and  CB_5
REMARK    4  A    between atoms: C_3  and  O_4
REMARK    5  A    between atoms: CB_5  and  CG_6
REMARK    6  A    between atoms: CG_6  and  CD_7
REMARK    7  A    between atoms: CD_7  and  CE_8
REMARK    8  A    between atoms: CE_8  and  NZ_9
REMARK                            x       y       z     vdW  Elec       q    Type
REMARK                         _______ _______ _______ _____ _____    ______ ____
ROOT
ATOM      1  CA  LYS B   1      -5.407   1.642 -14.145  0.00  0.00    +0.000 C 
ENDROOT
BRANCH   1   2
ATOM      2  N   LYS B   1      -5.923   2.729 -14.937  0.00  0.00    +0.000 NA
ATOM      3  H   LYS B   1      -6.830   2.467 -15.323  0.00  0.00    +0.000 HD
ATOM      4  H   LYS B   1      -5.275   2.933 -15.698  0.00  0.00    +0.000 HD
ENDBRANCH   1   2
BRANCH   1   5
ATOM      5  C   LYS B   1      -4.051   2.037 -13.569  0.00  0.00    +0.000 C 
ATOM      6  OXT LYS B   1      -3.032   1.485 -13.944  0.00  0.00    +0.000 OA
BRANCH   5   7
ATOM      7  O   LYS B   1      -3.995   2.947 -12.743  0.00  0.00    +0.000 OA
ATOM      8  H   LYS B   1      -4.781   3.369 -12.457  0.00  0.00    +0.000 HD
ENDBRANCH   5   7
ENDBRANCH   1   5
BRANCH   1   9
ATOM      9  CB  LYS B   1      -5.319   0.375 -14.939  0.00  0.00    +0.000 C 
BRANCH   9  10
ATOM     10  CG  LYS B   1      -6.549   0.101 -15.759  0.00  0.00    +0.000 C 
BRANCH  10  11
ATOM     11  CD  LYS B   1      -6.979  -1.344 -15.671  0.00  0.00    +0.000 C 
BRANCH  11  12
ATOM     12  CE  LYS B   1      -7.923  -1.730 -16.812  0.00  0.00    +0.000 C 
BRANCH  12  13
ATOM     13  NZ  LYS B   1      -8.726  -2.907 -16.460  0.00  0.00    +0.000 NA
ATOM     14  H   LYS B   1      -9.294  -2.698 -15.639  0.00  0.00    +0.000 HD
ATOM     15  H   LYS B   1      -8.107  -3.692 -16.255  0.00  0.00    +0.000 HD
ENDBRANCH  12  13
ENDBRANCH  11  12
ENDBRANCH  10  11
ENDBRANCH   9  10
ENDBRANCH   1   9
TORSDOF 8
