REMARK  Name = /storage/kiran-stuff/aaRS/phase2/energy_scoring/vina_182jobs/anc_prors_cat_LYS_LYS/ligand.h.pdb
REMARK  8 active torsions:
REMARK  status: ('A' for Active; 'I' for Inactive)
REMARK    1  A    between atoms: N_1  and  CA_2
REMARK    2  A    between atoms: CA_2  and  C_3
REMARK    3  A    between atoms: CA_2  and  CB_5
REMARK    4  A    between atoms: C_3  and  O_4
REMARK    5  A    between atoms: CB_5  and  CG_6
REMARK    6  A    between atoms: CG_6  and  CD_7
REMARK    7  A    between atoms: CD_7  and  CE_8
REMARK    8  A    between atoms: CE_8  and  NZ_9
REMARK                            x       y       z     vdW  Elec       q    Type
REMARK                         _______ _______ _______ _____ _____    ______ ____
ROOT
ATOM      1  CA  LYS B   1      -5.815   2.032 -13.978  0.00  0.00    +0.000 C 
ENDROOT
BRANCH   1   2
ATOM      2  N   LYS B   1      -6.335   2.946 -14.963  0.00  0.00    +0.000 NA
ATOM      3  H   LYS B   1      -7.348   3.009 -14.866  0.00  0.00    +0.000 HD
ATOM      4  H   LYS B   1      -6.103   2.607 -15.897  0.00  0.00    +0.000 HD
ENDBRANCH   1   2
BRANCH   1   5
ATOM      5  C   LYS B   1      -4.300   1.940 -14.126  0.00  0.00    +0.000 C 
ATOM      6  OXT LYS B   1      -3.770   0.892 -14.450  0.00  0.00    +0.000 OA
BRANCH   5   7
ATOM      7  O   LYS B   1      -3.619   2.949 -13.946  0.00  0.00    +0.000 OA
ATOM      8  H   LYS B   1      -4.031   3.753 -13.697  0.00  0.00    +0.000 HD
ENDBRANCH   5   7
ENDBRANCH   1   5
BRANCH   1   9
ATOM      9  CB  LYS B   1      -6.461   0.685 -14.081  0.00  0.00    +0.000 C 
BRANCH   9  10
ATOM     10  CG  LYS B   1      -7.956   0.729 -13.928  0.00  0.00    +0.000 C 
BRANCH  10  11
ATOM     11  CD  LYS B   1      -8.432  -0.115 -12.769  0.00  0.00    +0.000 C 
BRANCH  11  12
ATOM     12  CE  LYS B   1      -9.811  -0.723 -13.034  0.00  0.00    +0.000 C 
BRANCH  12  13
ATOM     13  NZ  LYS B   1     -10.616  -0.766 -11.808  0.00  0.00    +0.000 NA
ATOM     14  H   LYS B   1     -10.753   0.183 -11.457  0.00  0.00    +0.000 HD
ATOM     15  H   LYS B   1     -10.132  -1.323 -11.103  0.00  0.00    +0.000 HD
ENDBRANCH  12  13
ENDBRANCH  11  12
ENDBRANCH  10  11
ENDBRANCH   9  10
ENDBRANCH   1   9
TORSDOF 8
