REMARK  Name = /storage/kiran-stuff/aaRS/phase2/energy_scoring/vina_182jobs/anc_prors_edit_SER_SER/ligand.h.pdb
REMARK  5 active torsions:
REMARK  status: ('A' for Active; 'I' for Inactive)
REMARK    1  A    between atoms: N_1  and  CA_2
REMARK    2  A    between atoms: CA_2  and  C_3
REMARK    3  A    between atoms: CA_2  and  CB_5
REMARK    4  A    between atoms: C_3  and  O_4
REMARK    5  A    between atoms: CB_5  and  OG_6
REMARK                            x       y       z     vdW  Elec       q    Type
REMARK                         _______ _______ _______ _____ _____    ______ ____
ROOT
ATOM      1  CA  SER B   1       3.287   5.166 -21.884  0.00  0.00    +0.000 C 
ENDROOT
BRANCH   1   2
ATOM      2  N   SER B   1       3.128   6.604 -22.102  0.00  0.00    +0.000 NA
ATOM      3  H   SER B   1       3.631   6.878 -22.946  0.00  0.00    +0.000 HD
ATOM      4  H   SER B   1       3.505   7.113 -21.302  0.00  0.00    +0.000 HD
ENDBRANCH   1   2
BRANCH   1   5
ATOM      5  C   SER B   1       2.792   4.397 -23.100  0.00  0.00    +0.000 C 
ATOM      6  OXT SER B   1       3.403   4.508 -24.164  0.00  0.00    +0.000 OA
BRANCH   5   7
ATOM      7  O   SER B   1       1.786   3.691 -23.050  0.00  0.00    +0.000 OA
ATOM      8  H   SER B   1       1.316   3.602 -22.244  0.00  0.00    +0.000 HD
ENDBRANCH   5   7
ENDBRANCH   1   5
BRANCH   1   9
ATOM      9  CB  SER B   1       2.536   4.781 -20.630  0.00  0.00    +0.000 C 
BRANCH   9  10
ATOM     10  OG  SER B   1       2.949   5.588 -19.524  0.00  0.00    +0.000 OA
ATOM     11  H   SER B   1       3.897   5.457 -19.364  0.00  0.00    +0.000 HD
ENDBRANCH   9  10
ENDBRANCH   1   9
TORSDOF 5
