REMARK  Name = /storage/kiran-stuff/aaRS/phase2/energy_scoring/vina_182jobs/anc_prors_cat_TRP_TRP/ligand.h.pdb
REMARK  5 active torsions:
REMARK  status: ('A' for Active; 'I' for Inactive)
REMARK    1  A    between atoms: N_1  and  CA_2
REMARK    2  A    between atoms: CA_2  and  C_3
REMARK    3  A    between atoms: CA_2  and  CB_5
REMARK    4  A    between atoms: C_3  and  OXT_15
REMARK    5  A    between atoms: CB_5  and  CG_6
REMARK                            x       y       z     vdW  Elec       q    Type
REMARK                         _______ _______ _______ _____ _____    ______ ____
ROOT
ATOM      1  CB  TRP B   1       5.182  13.576   3.811  0.00  0.00    +0.000 C 
ENDROOT
BRANCH   1   2
ATOM      2  CG  TRP B   1       4.890  13.634   2.366  0.00  0.00    +0.000 C 
ATOM      3  CD1 TRP B   1       3.857  14.277   1.758  0.00  0.00    +0.000 C 
ATOM      4  CD2 TRP B   1       5.641  13.015   1.332  0.00  0.00    +0.000 A 
ATOM      5  NE1 TRP B   1       3.927  14.124   0.435  0.00  0.00    +0.000 NA
ATOM      6  CE2 TRP B   1       5.000  13.365   0.115  0.00  0.00    +0.000 A 
ATOM      7  CE3 TRP B   1       6.771  12.238   1.325  0.00  0.00    +0.000 A 
ATOM      8  CZ2 TRP B   1       5.505  12.949  -1.102  0.00  0.00    +0.000 A 
ATOM      9  CZ3 TRP B   1       7.263  11.821   0.130  0.00  0.00    +0.000 A 
ATOM     10  CH2 TRP B   1       6.645  12.163  -1.075  0.00  0.00    +0.000 A 
ENDBRANCH   1   2
BRANCH   1  11
ATOM     11  CA  TRP B   1       5.167  12.139   4.393  0.00  0.00    +0.000 C 
BRANCH  11  12
ATOM     12  N   TRP B   1       4.005  11.429   3.865  0.00  0.00    +0.000 NA
ATOM     13  H   TRP B   1       4.059  11.399   2.846  0.00  0.00    +0.000 HD
ATOM     14  H   TRP B   1       3.154  11.914   4.147  0.00  0.00    +0.000 HD
ENDBRANCH  11  12
BRANCH  11  15
ATOM     15  C   TRP B   1       5.116  12.199   5.890  0.00  0.00    +0.000 C 
ATOM     16  O   TRP B   1       4.075  12.588   6.450  0.00  0.00    +0.000 OA
BRANCH  15  17
ATOM     17  OXT TRP B   1       6.123  11.873   6.535  0.00  0.00    +0.000 OA
ATOM     18  H   TRP B   1       6.893  11.584   6.087  0.00  0.00    +0.000 HD
ENDBRANCH  15  17
ENDBRANCH  11  15
ENDBRANCH   1  11
TORSDOF 5
