REMARK  Name = /storage/kiran-stuff/aaRS/phase2/energy_scoring/vina_182jobs/anc_prors_cat_TRP_TRP/ligand.h.pdb
REMARK  5 active torsions:
REMARK  status: ('A' for Active; 'I' for Inactive)
REMARK    1  A    between atoms: N_1  and  CA_2
REMARK    2  A    between atoms: CA_2  and  C_3
REMARK    3  A    between atoms: CA_2  and  CB_5
REMARK    4  A    between atoms: C_3  and  OXT_15
REMARK    5  A    between atoms: CB_5  and  CG_6
REMARK                            x       y       z     vdW  Elec       q    Type
REMARK                         _______ _______ _______ _____ _____    ______ ____
ROOT
ATOM      1  CB  TRP B   1       5.458  13.614   3.386  0.00  0.00    +0.000 C 
ENDROOT
BRANCH   1   2
ATOM      2  CG  TRP B   1       5.331  13.626   1.916  0.00  0.00    +0.000 C 
ATOM      3  CD1 TRP B   1       4.415  14.304   1.173  0.00  0.00    +0.000 C 
ATOM      4  CD2 TRP B   1       6.148  12.918   0.997  0.00  0.00    +0.000 A 
ATOM      5  NE1 TRP B   1       4.619  14.089  -0.127  0.00  0.00    +0.000 NA
ATOM      6  CE2 TRP B   1       5.669  13.252  -0.297  0.00  0.00    +0.000 A 
ATOM      7  CE3 TRP B   1       7.219  12.074   1.145  0.00  0.00    +0.000 A 
ATOM      8  CZ2 TRP B   1       6.275  12.753  -1.433  0.00  0.00    +0.000 A 
ATOM      9  CZ3 TRP B   1       7.810  11.575   0.029  0.00  0.00    +0.000 A 
ATOM     10  CH2 TRP B   1       7.352  11.901  -1.250  0.00  0.00    +0.000 A 
ENDBRANCH   1   2
BRANCH   1  11
ATOM     11  CA  TRP B   1       5.267  12.211   4.017  0.00  0.00    +0.000 C 
BRANCH  11  12
ATOM     12  N   TRP B   1       4.004  11.650   3.544  0.00  0.00    +0.000 NA
ATOM     13  H   TRP B   1       4.022  11.582   2.526  0.00  0.00    +0.000 HD
ATOM     14  H   TRP B   1       3.235  12.255   3.831  0.00  0.00    +0.000 HD
ENDBRANCH  11  12
BRANCH  11  15
ATOM     15  C   TRP B   1       5.270  12.323   5.512  0.00  0.00    +0.000 C 
ATOM     16  O   TRP B   1       4.333  12.910   6.082  0.00  0.00    +0.000 OA
BRANCH  15  17
ATOM     17  OXT TRP B   1       6.220  11.839   6.145  0.00  0.00    +0.000 OA
ATOM     18  H   TRP B   1       6.912  11.402   5.689  0.00  0.00    +0.000 HD
ENDBRANCH  15  17
ENDBRANCH  11  15
ENDBRANCH   1  11
TORSDOF 5
