REMARK  Name = /storage/kiran-stuff/aaRS/phase2/energy_scoring/vina_182jobs/anc_thrrs_cat_LEU_LEU/ligand.h.pdb
REMARK  7 active torsions:
REMARK  status: ('A' for Active; 'I' for Inactive)
REMARK    1  A    between atoms: N_1  and  CA_2
REMARK    2  A    between atoms: CA_2  and  C_3
REMARK    3  A    between atoms: CA_2  and  CB_5
REMARK    4  A    between atoms: C_3  and  O_4
REMARK    5  A    between atoms: CB_5  and  CG_6
REMARK    6  A    between atoms: CG_6  and  CD1_7
REMARK    7  A    between atoms: CG_6  and  CD2_8
REMARK                            x       y       z     vdW  Elec       q    Type
REMARK                         _______ _______ _______ _____ _____    ______ ____
ROOT
ATOM      1  CA  LEU B   1      -4.231   1.579   5.598  0.00  0.00    +0.000 C 
ENDROOT
BRANCH   1   2
ATOM      2  N   LEU B   1      -4.161   2.455   4.427  0.00  0.00    +0.000 NA
ATOM      3  H   LEU B   1      -4.026   1.891   3.588  0.00  0.00    +0.000 HD
ATOM      4  H   LEU B   1      -3.377   3.100   4.532  0.00  0.00    +0.000 HD
ENDBRANCH   1   2
BRANCH   1   5
ATOM      5  C   LEU B   1      -4.431   2.410   6.846  0.00  0.00    +0.000 C 
ATOM      6  OXT LEU B   1      -4.629   3.622   6.726  0.00  0.00    +0.000 OA
BRANCH   5   7
ATOM      7  O   LEU B   1      -4.457   1.884   7.964  0.00  0.00    +0.000 OA
ATOM      8  H   LEU B   1      -4.306   0.963   8.052  0.00  0.00    +0.000 HD
ENDBRANCH   5   7
ENDBRANCH   1   5
BRANCH   1   9
ATOM      9  CB  LEU B   1      -2.964   0.727   5.633  0.00  0.00    +0.000 C 
BRANCH   9  10
ATOM     10  CG  LEU B   1      -1.822   1.228   6.539  0.00  0.00    +0.000 C 
ATOM     11  CD1 LEU B   1      -0.576   1.480   5.727  0.00  0.00    +0.000 C 
ATOM     12  CD2 LEU B   1      -1.525   0.199   7.599  0.00  0.00    +0.000 C 
ENDBRANCH   9  10
ENDBRANCH   1   9
TORSDOF 5
