REMARK  Name = /storage/kiran-stuff/aaRS/phase2/energy_scoring/vina_182jobs/anc_thrrs_cat_LEU_LEU/ligand.h.pdb
REMARK  7 active torsions:
REMARK  status: ('A' for Active; 'I' for Inactive)
REMARK    1  A    between atoms: N_1  and  CA_2
REMARK    2  A    between atoms: CA_2  and  C_3
REMARK    3  A    between atoms: CA_2  and  CB_5
REMARK    4  A    between atoms: C_3  and  O_4
REMARK    5  A    between atoms: CB_5  and  CG_6
REMARK    6  A    between atoms: CG_6  and  CD1_7
REMARK    7  A    between atoms: CG_6  and  CD2_8
REMARK                            x       y       z     vdW  Elec       q    Type
REMARK                         _______ _______ _______ _____ _____    ______ ____
ROOT
ATOM      1  CA  LEU B   1      -4.514   1.957   4.705  0.00  0.00    +0.000 C 
ENDROOT
BRANCH   1   2
ATOM      2  N   LEU B   1      -4.481   2.910   3.593  0.00  0.00    +0.000 NA
ATOM      3  H   LEU B   1      -4.101   2.452   2.764  0.00  0.00    +0.000 HD
ATOM      4  H   LEU B   1      -3.891   3.704   3.843  0.00  0.00    +0.000 HD
ENDBRANCH   1   2
BRANCH   1   5
ATOM      5  C   LEU B   1      -5.076   2.630   5.937  0.00  0.00    +0.000 C 
ATOM      6  OXT LEU B   1      -5.454   3.802   5.853  0.00  0.00    +0.000 OA
BRANCH   5   7
ATOM      7  O   LEU B   1      -5.214   2.007   6.996  0.00  0.00    +0.000 OA
ATOM      8  H   LEU B   1      -4.926   1.117   7.057  0.00  0.00    +0.000 HD
ENDBRANCH   5   7
ENDBRANCH   1   5
BRANCH   1   9
ATOM      9  CB  LEU B   1      -3.102   1.408   4.904  0.00  0.00    +0.000 C 
BRANCH   9  10
ATOM     10  CG  LEU B   1      -2.204   2.164   5.903  0.00  0.00    +0.000 C 
ATOM     11  CD1 LEU B   1      -0.911   2.575   5.243  0.00  0.00    +0.000 C 
ATOM     12  CD2 LEU B   1      -1.901   1.280   7.084  0.00  0.00    +0.000 C 
ENDBRANCH   9  10
ENDBRANCH   1   9
TORSDOF 5
