REMARK  Name = /storage/kiran-stuff/aaRS/phase2/energy_scoring/vina_182jobs/anc_prors_edit_ASN_ASN/ligand.h.pdb
REMARK  5 active torsions:
REMARK  status: ('A' for Active; 'I' for Inactive)
REMARK    1  A    between atoms: N_1  and  CA_2
REMARK    2  A    between atoms: CA_2  and  C_3
REMARK    3  A    between atoms: CA_2  and  CB_5
REMARK    4  A    between atoms: C_3  and  OXT_9
REMARK    5  A    between atoms: CB_5  and  CG_6
REMARK                            x       y       z     vdW  Elec       q    Type
REMARK                         _______ _______ _______ _____ _____    ______ ____
ROOT
ATOM      1  CA  ASN B   1      -6.090   0.249  21.604  0.00  0.00    +0.000 C 
ENDROOT
BRANCH   1   2
ATOM      2  N   ASN B   1      -4.924  -0.212  20.840  0.00  0.00    +0.000 NA
ATOM      3  H   ASN B   1      -4.793   0.387  20.025  0.00  0.00    +0.000 HD
ATOM      4  H   ASN B   1      -5.076  -1.173  20.534  0.00  0.00    +0.000 HD
ENDBRANCH   1   2
BRANCH   1   5
ATOM      5  C   ASN B   1      -6.316  -0.627  22.833  0.00  0.00    +0.000 C 
ATOM      6  O   ASN B   1      -5.784  -1.729  22.915  0.00  0.00    +0.000 OA
BRANCH   5   7
ATOM      7  OXT ASN B   1      -7.065  -0.228  23.738  0.00  0.00    +0.000 OA
ATOM      8  H   ASN B   1      -7.470   0.614  23.673  0.00  0.00    +0.000 HD
ENDBRANCH   5   7
ENDBRANCH   1   5
BRANCH   1   9
ATOM      9  CB  ASN B   1      -7.320   0.229  20.730  0.00  0.00    +0.000 C 
BRANCH   9  10
ATOM     10  CG  ASN B   1      -8.023   1.562  20.645  0.00  0.00    +0.000 C 
ATOM     11  OD1 ASN B   1      -8.040   2.306  21.624  0.00  0.00    +0.000 OA
ATOM     12  ND2 ASN B   1      -8.623   1.903  19.506  0.00  0.00    +0.000 N 
ATOM     13  H   ASN B   1      -8.597   1.292  18.734  0.00  0.00    +0.000 HD
ATOM     14  H   ASN B   1      -9.092   2.766  19.436  0.00  0.00    +0.000 HD
ENDBRANCH   9  10
ENDBRANCH   1   9
TORSDOF 5
