REMARK  Name = /storage/kiran-stuff/aaRS/phase2/energy_scoring/vina_182jobs/anc_prors_edit_ASN_ASN/ligand.h.pdb
REMARK  5 active torsions:
REMARK  status: ('A' for Active; 'I' for Inactive)
REMARK    1  A    between atoms: N_1  and  CA_2
REMARK    2  A    between atoms: CA_2  and  C_3
REMARK    3  A    between atoms: CA_2  and  CB_5
REMARK    4  A    between atoms: C_3  and  OXT_9
REMARK    5  A    between atoms: CB_5  and  CG_6
REMARK                            x       y       z     vdW  Elec       q    Type
REMARK                         _______ _______ _______ _____ _____    ______ ____
ROOT
ATOM      1  CA  ASN B   1      -6.318   0.213  21.466  0.00  0.00    +0.000 C 
ENDROOT
BRANCH   1   2
ATOM      2  N   ASN B   1      -5.234  -0.518  20.799  0.00  0.00    +0.000 NA
ATOM      3  H   ASN B   1      -4.973  -0.031  19.941  0.00  0.00    +0.000 HD
ATOM      4  H   ASN B   1      -5.549  -1.461  20.570  0.00  0.00    +0.000 HD
ENDBRANCH   1   2
BRANCH   1   5
ATOM      5  C   ASN B   1      -6.735  -0.490  22.755  0.00  0.00    +0.000 C 
ATOM      6  O   ASN B   1      -6.377  -1.642  22.976  0.00  0.00    +0.000 OA
BRANCH   5   7
ATOM      7  OXT ASN B   1      -7.463   0.103  23.566  0.00  0.00    +0.000 OA
ATOM      8  H   ASN B   1      -7.735   0.982  23.394  0.00  0.00    +0.000 HD
ENDBRANCH   5   7
ENDBRANCH   1   5
BRANCH   1   9
ATOM      9  CB  ASN B   1      -7.506   0.331  20.542  0.00  0.00    +0.000 C 
BRANCH   9  10
ATOM     10  CG  ASN B   1      -8.108   1.714  20.505  0.00  0.00    +0.000 C 
ATOM     11  OD1 ASN B   1      -8.230   2.354  21.548  0.00  0.00    +0.000 OA
ATOM     12  ND2 ASN B   1      -8.508   2.212  19.337  0.00  0.00    +0.000 N 
ATOM     13  H   ASN B   1      -8.402   1.683  18.514  0.00  0.00    +0.000 HD
ATOM     14  H   ASN B   1      -8.910   3.111  19.296  0.00  0.00    +0.000 HD
ENDBRANCH   9  10
ENDBRANCH   1   9
TORSDOF 5
