REMARK  Name = /storage/kiran-stuff/aaRS/phase2/energy_scoring/vina_182jobs/anc_prors_edit_ALA_ALA/ligand.h.pdb
REMARK  4 active torsions:
REMARK  status: ('A' for Active; 'I' for Inactive)
REMARK    1  A    between atoms: N_1  and  CA_2
REMARK    2  A    between atoms: CA_2  and  C_3
REMARK    3  A    between atoms: CA_2  and  CB_5
REMARK    4  A    between atoms: C_3  and  OXT_6
REMARK                            x       y       z     vdW  Elec       q    Type
REMARK                         _______ _______ _______ _____ _____    ______ ____
ROOT
ATOM      1  CA  ALA B   1      11.060  -0.735 -16.164  0.00  0.00    +0.000 C 
ATOM      2  CB  ALA B   1      11.940  -0.683 -17.377  0.00  0.00    +0.000 C 
ENDROOT
BRANCH   1   3
ATOM      3  N   ALA B   1      10.086  -1.802 -16.341  0.00  0.00    +0.000 NA
ATOM      4  H   ALA B   1       9.480  -1.848 -15.522  0.00  0.00    +0.000 HD
ATOM      5  H   ALA B   1      10.573  -2.691 -16.455  0.00  0.00    +0.000 HD
ENDBRANCH   1   3
BRANCH   1   6
ATOM      6  C   ALA B   1      10.400   0.594 -15.918  0.00  0.00    +0.000 C 
ATOM      7  O   ALA B   1      11.081   1.624 -15.807  0.00  0.00    +0.000 OA
BRANCH   6   8
ATOM      8  OXT ALA B   1       9.169   0.666 -15.838  0.00  0.00    +0.000 OA
ATOM      9  H   ALA B   1       8.648  -0.109 -15.922  0.00  0.00    +0.000 HD
ENDBRANCH   6   8
ENDBRANCH   1   6
TORSDOF 3
