REMARK  Name = /storage/kiran-stuff/aaRS/phase2/energy_scoring/vina_182jobs/anc_prors_edit_ALA_ALA/ligand.h.pdb
REMARK  4 active torsions:
REMARK  status: ('A' for Active; 'I' for Inactive)
REMARK    1  A    between atoms: N_1  and  CA_2
REMARK    2  A    between atoms: CA_2  and  C_3
REMARK    3  A    between atoms: CA_2  and  CB_5
REMARK    4  A    between atoms: C_3  and  OXT_6
REMARK                            x       y       z     vdW  Elec       q    Type
REMARK                         _______ _______ _______ _____ _____    ______ ____
ROOT
ATOM      1  CA  ALA B   1       9.766  -0.371 -17.560  0.00  0.00    +0.000 C 
ATOM      2  CB  ALA B   1       9.458   0.966 -16.955  0.00  0.00    +0.000 C 
ENDROOT
BRANCH   1   3
ATOM      3  N   ALA B   1       9.566  -1.397 -16.547  0.00  0.00    +0.000 NA
ATOM      4  H   ALA B   1       9.772  -2.313 -16.945  0.00  0.00    +0.000 HD
ATOM      5  H   ALA B   1       8.597  -1.375 -16.228  0.00  0.00    +0.000 HD
ENDBRANCH   1   3
BRANCH   1   6
ATOM      6  C   ALA B   1      11.160  -0.401 -18.123  0.00  0.00    +0.000 C 
ATOM      7  O   ALA B   1      11.716   0.646 -18.484  0.00  0.00    +0.000 OA
BRANCH   6   8
ATOM      8  OXT ALA B   1      11.764  -1.475 -18.217  0.00  0.00    +0.000 OA
ATOM      9  H   ALA B   1      11.350  -2.271 -17.946  0.00  0.00    +0.000 HD
ENDBRANCH   6   8
ENDBRANCH   1   6
TORSDOF 3
