REMARK  Name = /storage/kiran-stuff/aaRS/phase2/energy_scoring/vina_182jobs/anc_thrrs_cat_TYR_TYR/ligand.h.pdb
REMARK  6 active torsions:
REMARK  status: ('A' for Active; 'I' for Inactive)
REMARK    1  A    between atoms: N_1  and  CA_2
REMARK    2  A    between atoms: CA_2  and  C_3
REMARK    3  A    between atoms: CA_2  and  CB_5
REMARK    4  A    between atoms: C_3  and  O_4
REMARK    5  A    between atoms: CB_5  and  CG_6
REMARK    6  A    between atoms: CZ_11  and  OH_12
REMARK                            x       y       z     vdW  Elec       q    Type
REMARK                         _______ _______ _______ _____ _____    ______ ____
ROOT
ATOM      1  CB  TYR B   1      12.459   7.862 -12.367  0.00  0.00    +0.000 C 
ENDROOT
BRANCH   1   2
ATOM      2  CG  TYR B   1      12.760   6.758 -13.291  0.00  0.00    +0.000 A 
ATOM      3  CD1 TYR B   1      14.059   6.238 -13.398  0.00  0.00    +0.000 A 
ATOM      4  CD2 TYR B   1      11.750   6.176 -14.046  0.00  0.00    +0.000 A 
ATOM      5  CE1 TYR B   1      14.318   5.179 -14.251  0.00  0.00    +0.000 A 
ATOM      6  CE2 TYR B   1      12.014   5.119 -14.893  0.00  0.00    +0.000 A 
ATOM      7  CZ  TYR B   1      13.293   4.595 -15.002  0.00  0.00    +0.000 A 
BRANCH   7   8
ATOM      8  OH  TYR B   1      13.515   3.555 -15.819  0.00  0.00    +0.000 OA
ATOM      9  H   TYR B   1      14.377   3.196 -15.897  0.00  0.00    +0.000 HD
ENDBRANCH   7   8
ENDBRANCH   1   2
BRANCH   1  10
ATOM     10  CA  TYR B   1      12.798   9.237 -12.998  0.00  0.00    +0.000 C 
BRANCH  10  11
ATOM     11  N   TYR B   1      14.056   9.730 -12.479  0.00  0.00    +0.000 NA
ATOM     12  H   TYR B   1      14.267  10.634 -12.901  0.00  0.00    +0.000 HD
ATOM     13  H   TYR B   1      14.799   9.069 -12.704  0.00  0.00    +0.000 HD
ENDBRANCH  10  11
BRANCH  10  14
ATOM     14  C   TYR B   1      11.703  10.224 -12.733  0.00  0.00    +0.000 C 
ATOM     15  OXT TYR B   1      10.534   9.830 -12.694  0.00  0.00    +0.000 OA
BRANCH  14  16
ATOM     16  O   TYR B   1      11.952  11.422 -12.532  0.00  0.00    +0.000 OA
ATOM     17  H   TYR B   1      12.838  11.728 -12.560  0.00  0.00    +0.000 HD
ENDBRANCH  14  16
ENDBRANCH  10  14
ENDBRANCH   1  10
TORSDOF 6
