REMARK  Name = /storage/kiran-stuff/aaRS/phase2/energy_scoring/vina_182jobs/anc_thrrs_cat_TYR_TYR/ligand.h.pdb
REMARK  6 active torsions:
REMARK  status: ('A' for Active; 'I' for Inactive)
REMARK    1  A    between atoms: N_1  and  CA_2
REMARK    2  A    between atoms: CA_2  and  C_3
REMARK    3  A    between atoms: CA_2  and  CB_5
REMARK    4  A    between atoms: C_3  and  O_4
REMARK    5  A    between atoms: CB_5  and  CG_6
REMARK    6  A    between atoms: CZ_11  and  OH_12
REMARK                            x       y       z     vdW  Elec       q    Type
REMARK                         _______ _______ _______ _____ _____    ______ ____
ROOT
ATOM      1  CB  TYR B   1      10.459  11.089 -11.537  0.00  0.00    +0.000 C 
ENDROOT
BRANCH   1   2
ATOM      2  CG  TYR B   1       9.168  11.082 -10.832  0.00  0.00    +0.000 A 
ATOM      3  CD1 TYR B   1       8.144  11.973 -11.189  0.00  0.00    +0.000 A 
ATOM      4  CD2 TYR B   1       8.922  10.159  -9.824  0.00  0.00    +0.000 A 
ATOM      5  CE1 TYR B   1       6.925  11.932 -10.534  0.00  0.00    +0.000 A 
ATOM      6  CE2 TYR B   1       7.704  10.122  -9.176  0.00  0.00    +0.000 A 
ATOM      7  CZ  TYR B   1       6.684  10.994  -9.525  0.00  0.00    +0.000 A 
BRANCH   7   8
ATOM      8  OH  TYR B   1       5.504  10.921  -8.890  0.00  0.00    +0.000 OA
ATOM      9  H   TYR B   1       4.811  11.507  -9.121  0.00  0.00    +0.000 HD
ENDBRANCH   7   8
ENDBRANCH   1   2
BRANCH   1  10
ATOM     10  CA  TYR B   1      10.490  10.036 -12.674  0.00  0.00    +0.000 C 
BRANCH  10  11
ATOM     11  N   TYR B   1      11.848   9.833 -13.133  0.00  0.00    +0.000 NA
ATOM     12  H   TYR B   1      11.854   9.139 -13.880  0.00  0.00    +0.000 HD
ATOM     13  H   TYR B   1      12.423   9.503 -12.358  0.00  0.00    +0.000 HD
ENDBRANCH  10  11
BRANCH  10  14
ATOM     14  C   TYR B   1       9.614  10.461 -13.812  0.00  0.00    +0.000 C 
ATOM     15  OXT TYR B   1      10.023  11.321 -14.597  0.00  0.00    +0.000 OA
BRANCH  14  16
ATOM     16  O   TYR B   1       8.498   9.950 -13.990  0.00  0.00    +0.000 OA
ATOM     17  H   TYR B   1       8.182   9.297 -13.397  0.00  0.00    +0.000 HD
ENDBRANCH  14  16
ENDBRANCH  10  14
ENDBRANCH   1  10
TORSDOF 6
