REMARK  Name = /storage/kiran-stuff/aaRS/phase2/energy_scoring/vina_182jobs/deep_domain_thr_THR/ligand.h.pdb
REMARK  6 active torsions:
REMARK  status: ('A' for Active; 'I' for Inactive)
REMARK    1  A    between atoms: N_1  and  CA_2
REMARK    2  A    between atoms: CA_2  and  C_3
REMARK    3  A    between atoms: CA_2  and  CB_5
REMARK    4  A    between atoms: C_3  and  O_4
REMARK    5  A    between atoms: CB_5  and  OG1_6
REMARK    6  A    between atoms: CB_5  and  CG2_7
REMARK                            x       y       z     vdW  Elec       q    Type
REMARK                         _______ _______ _______ _____ _____    ______ ____
ROOT
ATOM      1  CA  THR C   1     -18.635 -17.772  11.484  0.00  0.00    +0.000 C 
ENDROOT
BRANCH   1   2
ATOM      2  N   THR C   1     -19.692 -17.267  12.367  0.00  0.00    +0.000 NA
ATOM      3  H   THR C   1     -20.354 -16.714  11.823  0.00  0.00    +0.000 HD
ATOM      4  H   THR C   1     -19.278 -16.683  13.093  0.00  0.00    +0.000 HD
ENDBRANCH   1   2
BRANCH   1   5
ATOM      5  C   THR C   1     -17.638 -18.598  12.277  0.00  0.00    +0.000 C 
ATOM      6  OXT THR C   1     -16.453 -18.302  12.303  0.00  0.00    +0.000 OA
BRANCH   5   7
ATOM      7  O   THR C   1     -18.021 -19.567  12.903  0.00  0.00    +0.000 OA
ATOM      8  H   THR C   1     -18.927 -19.804  12.891  0.00  0.00    +0.000 HD
ENDBRANCH   5   7
ENDBRANCH   1   5
BRANCH   1   9
ATOM      9  CB  THR C   1     -17.989 -16.604  10.773  0.00  0.00    +0.000 C 
ATOM     10  CG2 THR C   1     -17.808 -15.427  11.681  0.00  0.00    +0.000 C 
BRANCH   9  11
ATOM     11  OG1 THR C   1     -18.837 -16.248   9.679  0.00  0.00    +0.000 OA
ATOM     12  H   THR C   1     -19.711 -15.996  10.016  0.00  0.00    +0.000 HD
ENDBRANCH   9  11
ENDBRANCH   1   9
TORSDOF 5
