REMARK  Name = /storage/kiran-stuff/aaRS/phase2/energy_scoring/vina_182jobs/deep_domain_thr_THR/ligand.h.pdb
REMARK  285 active torsions:
REMARK  status: ('A' for Active; 'I' for Inactive)
REMARK    1  A    between atoms: OP3_1  and  P_2
REMARK    2  A    between atoms: C2'_11  and  O2'_12
REMARK    3  A    between atoms: P_22  and  OP2_24
REMARK    4  A    between atoms: C2'_31  and  O2'_32
REMARK    5  A    between atoms: C1'_33  and  N1_34
REMARK    6  A    between atoms: P_42  and  OP2_44
REMARK    7  A    between atoms: C2'_51  and  O2'_52
REMARK    8  A    between atoms: C6_58  and  N1_1376
REMARK    9  A    between atoms: P_64  and  OP2_66
REMARK   10  A    between atoms: C2'_73  and  O2'_74
REMARK   11  A    between atoms: C1'_75  and  N9_76
REMARK   12  A    between atoms: P_86  and  OP2_88
REMARK   13  A    between atoms: C2'_95  and  O2'_96
REMARK   14  A    between atoms: C1'_97  and  N1_98
REMARK   15  A    between atoms: P_106  and  OP2_108
REMARK   16  A    between atoms: C2'_115  and  O2'_116
REMARK   17  A    between atoms: C1'_117  and  N9_118
REMARK   18  A    between atoms: P_128  and  OP2_130
REMARK   19  A    between atoms: C2'_137  and  O2'_138
REMARK   20  A    between atoms: C1'_139  and  N1_140
REMARK   21  A    between atoms: P_148  and  OP1_149
REMARK   22  A    between atoms: C2'_157  and  O2'_158
REMARK   23  A    between atoms: C1'_159  and  N1_160
REMARK   24  A    between atoms: P_168  and  OP2_170
REMARK   25  A    between atoms: C2'_177  and  O2'_178
REMARK   26  A    between atoms: C1'_179  and  N9_180
REMARK   27  A    between atoms: P_190  and  OP2_192
REMARK   28  A    between atoms: C2'_199  and  O2'_200
REMARK   29  A    between atoms: C1'_201  and  N1_202
REMARK   30  A    between atoms: P_210  and  OP2_212
REMARK   31  A    between atoms: C2'_219  and  O2'_220
REMARK   32  A    between atoms: C1'_221  and  N1_222
REMARK   33  A    between atoms: P_230  and  OP2_232
REMARK   34  A    between atoms: C2'_239  and  O2'_240
REMARK   35  A    between atoms: C1'_241  and  N1_242
REMARK   36  A    between atoms: P_250  and  OP2_252
REMARK   37  A    between atoms: C2'_259  and  O2'_260
REMARK   38  A    between atoms: C1'_261  and  N1_262
REMARK   39  A    between atoms: P_270  and  OP2_272
REMARK   40  A    between atoms: C2'_279  and  O2'_280
REMARK   41  A    between atoms: C1'_281  and  N9_282
REMARK   42  A    between atoms: P_292  and  OP1_293
REMARK   43  A    between atoms: C2'_301  and  O2'_302
REMARK   44  A    between atoms: C1'_303  and  N1_304
REMARK   45  A    between atoms: P_312  and  OP1_313
REMARK   46  A    between atoms: C2'_321  and  O2'_322
REMARK   47  A    between atoms: C1'_323  and  N1_324
REMARK   48  A    between atoms: P_332  and  OP1_333
REMARK   49  A    between atoms: C2'_341  and  O2'_342
REMARK   50  A    between atoms: C1'_343  and  N1_344
REMARK   51  A    between atoms: P_352  and  OP1_353
REMARK   52  A    between atoms: C2'_361  and  O2'_362
REMARK   53  A    between atoms: C1'_363  and  N9_364
REMARK   54  A    between atoms: P_375  and  OP2_377
REMARK   55  A    between atoms: C2'_384  and  O2'_385
REMARK   56  A    between atoms: C1'_386  and  N9_387
REMARK   57  A    between atoms: P_397  and  OP2_399
REMARK   58  A    between atoms: C2'_406  and  O2'_407
REMARK   59  A    between atoms: C1'_408  and  N9_409
REMARK   60  A    between atoms: P_419  and  OP2_421
REMARK   61  A    between atoms: C2'_428  and  O2'_429
REMARK   62  A    between atoms: C1'_430  and  N9_431
REMARK   63  A    between atoms: P_441  and  OP2_443
REMARK   64  A    between atoms: C2'_450  and  O2'_451
REMARK   65  A    between atoms: C1'_452  and  N1_453
REMARK   66  A    between atoms: P_461  and  OP2_463
REMARK   67  A    between atoms: C2'_470  and  O2'_471
REMARK   68  A    between atoms: C1'_472  and  N1_473
REMARK   69  A    between atoms: P_481  and  OP2_483
REMARK   70  A    between atoms: C2'_490  and  O2'_491
REMARK   71  A    between atoms: C1'_492  and  N1_493
REMARK   72  A    between atoms: P_501  and  OP1_502
REMARK   73  A    between atoms: C2'_510  and  O2'_511
REMARK   74  A    between atoms: C1'_512  and  N1_513
REMARK   75  A    between atoms: P_521  and  OP1_522
REMARK   76  A    between atoms: C2'_530  and  O2'_531
REMARK   77  A    between atoms: C1'_532  and  N1_533
REMARK   78  A    between atoms: P_541  and  OP1_542
REMARK   79  A    between atoms: C2'_550  and  O2'_551
REMARK   80  A    between atoms: C1'_552  and  N1_553
REMARK   81  A    between atoms: P_561  and  OP1_562
REMARK   82  A    between atoms: C2'_570  and  O2'_571
REMARK   83  A    between atoms: C1'_572  and  N1_573
REMARK   84  A    between atoms: P_581  and  OP2_583
REMARK   85  A    between atoms: C2'_590  and  O2'_591
REMARK   86  A    between atoms: C1'_592  and  N9_593
REMARK   87  A    between atoms: P_603  and  OP2_605
REMARK   88  A    between atoms: C2'_612  and  O2'_613
REMARK   89  A    between atoms: C1'_614  and  N9_615
REMARK   90  A    between atoms: P_625  and  OP2_627
REMARK   91  A    between atoms: C2'_634  and  O2'_635
REMARK   92  A    between atoms: C1'_636  and  N9_637
REMARK   93  A    between atoms: P_647  and  OP2_649
REMARK   94  A    between atoms: C2'_656  and  O2'_657
REMARK   95  A    between atoms: C1'_658  and  N9_659
REMARK   96  A    between atoms: P_669  and  OP2_671
REMARK   97  A    between atoms: C2'_678  and  O2'_679
REMARK   98  A    between atoms: C1'_680  and  N1_681
REMARK   99  A    between atoms: P_689  and  OP2_691
REMARK  100  A    between atoms: C2'_698  and  O2'_699
REMARK  101  A    between atoms: C1'_700  and  N9_701
REMARK  102  A    between atoms: P_711  and  OP2_713
REMARK  103  A    between atoms: C2'_720  and  O2'_721
REMARK  104  A    between atoms: C1'_722  and  N9_723
REMARK  105  A    between atoms: C6_727  and  N6_728
REMARK  106  A    between atoms: P_733  and  OP1_734
REMARK  107  A    between atoms: C2'_742  and  O2'_743
REMARK  108  A    between atoms: C1'_744  and  N1_745
REMARK  109  A    between atoms: P_753  and  OP1_754
REMARK  110  A    between atoms: C2'_762  and  O2'_763
REMARK  111  A    between atoms: C1'_764  and  N9_765
REMARK  112  A    between atoms: C6_769  and  N6_770
REMARK  113  A    between atoms: P_775  and  OP1_776
REMARK  114  A    between atoms: C2'_784  and  O2'_785
REMARK  115  A    between atoms: P_795  and  OP2_797
REMARK  116  A    between atoms: C2'_804  and  O2'_805
REMARK  117  A    between atoms: C1'_806  and  N1_807
REMARK  118  A    between atoms: P_815  and  OP1_816
REMARK  119  A    between atoms: C2'_824  and  O2'_825
REMARK  120  A    between atoms: C4_831  and  N4_832
REMARK  121  A    between atoms: P_835  and  OP2_837
REMARK  122  A    between atoms: C2'_844  and  O2'_845
REMARK  123  A    between atoms: C1'_846  and  N1_847
REMARK  124  A    between atoms: P_855  and  OP1_856
REMARK  125  A    between atoms: C2'_864  and  O2'_865
REMARK  126  A    between atoms: P_875  and  OP2_877
REMARK  127  A    between atoms: C2'_884  and  O2'_885
REMARK  128  A    between atoms: C1'_886  and  N9_887
REMARK  129  A    between atoms: P_897  and  OP1_898
REMARK  130  A    between atoms: C2'_906  and  O2'_907
REMARK  131  A    between atoms: P_917  and  OP1_918
REMARK  132  A    between atoms: C2'_926  and  O2'_927
REMARK  133  A    between atoms: C1'_928  and  N1_929
REMARK  134  A    between atoms: P_937  and  OP1_938
REMARK  135  A    between atoms: C2'_946  and  O2'_947
REMARK  136  A    between atoms: C1'_948  and  N1_949
REMARK  137  A    between atoms: P_957  and  OP1_958
REMARK  138  A    between atoms: C2'_966  and  O2'_967
REMARK  139  A    between atoms: C1'_968  and  N1_969
REMARK  140  A    between atoms: P_977  and  OP1_978
REMARK  141  A    between atoms: C2'_986  and  O2'_987
REMARK  142  A    between atoms: C1'_988  and  N9_989
REMARK  143  A    between atoms: C6_993  and  N6_994
REMARK  144  A    between atoms: P_999  and  OP1_1000
REMARK  145  A    between atoms: C2'_1008  and  O2'_1009
REMARK  146  A    between atoms: C1'_1010  and  N1_1011
REMARK  147  A    between atoms: P_1019  and  OP1_1020
REMARK  148  A    between atoms: C2'_1028  and  O2'_1029
REMARK  149  A    between atoms: C1'_1030  and  N1_1031
REMARK  150  A    between atoms: P_1039  and  OP2_1041
REMARK  151  A    between atoms: C2'_1048  and  O2'_1049
REMARK  152  A    between atoms: C1'_1050  and  N1_1051
REMARK  153  A    between atoms: P_1059  and  OP2_1061
REMARK  154  A    between atoms: C2'_1068  and  O2'_1069
REMARK  155  A    between atoms: C1'_1070  and  N1_1071
REMARK  156  A    between atoms: P_1079  and  OP2_1081
REMARK  157  A    between atoms: C2'_1088  and  O2'_1089
REMARK  158  A    between atoms: C1'_1090  and  N9_1091
REMARK  159  A    between atoms: P_1101  and  OP2_1103
REMARK  160  A    between atoms: C2'_1110  and  O2'_1111
REMARK  161  A    between atoms: C1'_1112  and  N9_1113
REMARK  162  A    between atoms: P_1123  and  OP1_1124
REMARK  163  A    between atoms: C2'_1132  and  O2'_1133
REMARK  164  A    between atoms: C1'_1134  and  N9_1135
REMARK  165  A    between atoms: C6_1139  and  N6_1140
REMARK  166  A    between atoms: P_1145  and  OP1_1146
REMARK  167  A    between atoms: C2'_1154  and  O2'_1155
REMARK  168  A    between atoms: C1'_1156  and  N9_1157
REMARK  169  A    between atoms: C6_1161  and  N6_1162
REMARK  170  A    between atoms: P_1167  and  OP1_1168
REMARK  171  A    between atoms: C2'_1176  and  O2'_1177
REMARK  172  A    between atoms: C1'_1178  and  N9_1179
REMARK  173  A    between atoms: C6_1183  and  N6_1184
REMARK  174  A    between atoms: P_1189  and  OP1_1190
REMARK  175  A    between atoms: C2'_1198  and  O2'_1199
REMARK  176  A    between atoms: C1'_1200  and  N1_1201
REMARK  177  A    between atoms: P_1209  and  OP1_1210
REMARK  178  A    between atoms: C2'_1218  and  O2'_1219
REMARK  179  A    between atoms: C1'_1220  and  N9_1221
REMARK  180  A    between atoms: C6_1225  and  N6_1226
REMARK  181  A    between atoms: P_1231  and  OP1_1232
REMARK  182  A    between atoms: C2'_1240  and  O2'_1241
REMARK  183  A    between atoms: C1'_1242  and  N9_1243
REMARK  184  A    between atoms: P_1254  and  OP1_1255
REMARK  185  A    between atoms: C2'_1263  and  O2'_1264
REMARK  186  A    between atoms: C1'_1265  and  N9_1266
REMARK  187  A    between atoms: C6_1270  and  N6_1271
REMARK  188  A    between atoms: P_1276  and  OP1_1277
REMARK  189  A    between atoms: C2'_1285  and  O2'_1286
REMARK  190  A    between atoms: C1'_1287  and  N1_1288
REMARK  191  A    between atoms: P_1296  and  OP1_1297
REMARK  192  A    between atoms: C2'_1305  and  O2'_1306
REMARK  193  A    between atoms: C1'_1307  and  N1_1308
REMARK  194  A    between atoms: P_1316  and  OP1_1317
REMARK  195  A    between atoms: C2'_1325  and  O2'_1326
REMARK  196  A    between atoms: C1'_1327  and  N9_1328
REMARK  197  A    between atoms: C6_1332  and  N6_1333
REMARK  198  A    between atoms: P_1338  and  OP2_1340
REMARK  199  A    between atoms: C2'_1347  and  O2'_1348
REMARK  200  A    between atoms: C1'_1349  and  N1_1350
REMARK  201  A    between atoms: P_1358  and  OP2_1360
REMARK  202  A    between atoms: C3'_1365  and  O3'_1366
REMARK  203  A    between atoms: O3'_1366  and  P_1380
REMARK  204  A    between atoms: C2'_1367  and  O2'_1368
REMARK  205  A    between atoms: P_1380  and  OP1_1381
REMARK  206  A    between atoms: P_1380  and  O5'_1383
REMARK  207  A    between atoms: O5'_1383  and  C5'_1384
REMARK  208  A    between atoms: C5'_1384  and  C4'_1385
REMARK  209  A    between atoms: C3'_1387  and  O3'_1388
REMARK  210  A    between atoms: O3'_1388  and  P_1402
REMARK  211  A    between atoms: C2'_1389  and  O2'_1390
REMARK  212  A    between atoms: C1'_1391  and  N9_1392
REMARK  213  A    between atoms: P_1402  and  OP2_1404
REMARK  214  A    between atoms: P_1402  and  O5'_1405
REMARK  215  A    between atoms: O5'_1405  and  C5'_1406
REMARK  216  A    between atoms: C5'_1406  and  C4'_1407
REMARK  217  A    between atoms: C3'_1409  and  O3'_1410
REMARK  218  A    between atoms: O3'_1410  and  P_1424
REMARK  219  A    between atoms: C2'_1411  and  O2'_1412
REMARK  220  A    between atoms: C1'_1413  and  N9_1414
REMARK  221  A    between atoms: P_1424  and  OP1_1425
REMARK  222  A    between atoms: P_1424  and  O5'_1427
REMARK  223  A    between atoms: O5'_1427  and  C5'_1428
REMARK  224  A    between atoms: C5'_1428  and  C4'_1429
REMARK  225  A    between atoms: C3'_1431  and  O3'_1432
REMARK  226  A    between atoms: O3'_1432  and  P_1446
REMARK  227  A    between atoms: C2'_1433  and  O2'_1434
REMARK  228  A    between atoms: C1'_1435  and  N9_1436
REMARK  229  A    between atoms: C6_1440  and  N6_1441
REMARK  230  A    between atoms: P_1446  and  OP1_1447
REMARK  231  A    between atoms: P_1446  and  O5'_1449
REMARK  232  A    between atoms: O5'_1449  and  C5'_1450
REMARK  233  A    between atoms: C5'_1450  and  C4'_1451
REMARK  234  A    between atoms: C3'_1453  and  O3'_1454
REMARK  235  A    between atoms: O3'_1454  and  P_1468
REMARK  236  A    between atoms: C2'_1455  and  O2'_1456
REMARK  237  A    between atoms: C1'_1457  and  N9_1458
REMARK  238  A    between atoms: C6_1462  and  N6_1463
REMARK  239  A    between atoms: P_1468  and  OP1_1469
REMARK  240  A    between atoms: P_1468  and  O5'_1471
REMARK  241  A    between atoms: O5'_1471  and  C5'_1472
REMARK  242  A    between atoms: C5'_1472  and  C4'_1473
REMARK  243  A    between atoms: C3'_1475  and  O3'_1476
REMARK  244  A    between atoms: O3'_1476  and  P_1488
REMARK  245  A    between atoms: C2'_1477  and  O2'_1478
REMARK  246  A    between atoms: C1'_1479  and  N1_1480
REMARK  247  A    between atoms: P_1488  and  OP1_1489
REMARK  248  A    between atoms: P_1488  and  O5'_1491
REMARK  249  A    between atoms: O5'_1491  and  C5'_1492
REMARK  250  A    between atoms: C5'_1492  and  C4'_1493
REMARK  251  A    between atoms: C3'_1495  and  O3'_1496
REMARK  252  A    between atoms: O3'_1496  and  P_1508
REMARK  253  A    between atoms: C2'_1497  and  O2'_1498
REMARK  254  A    between atoms: C1'_1499  and  N1_1500
REMARK  255  A    between atoms: P_1508  and  OP1_1509
REMARK  256  A    between atoms: P_1508  and  O5'_1511
REMARK  257  A    between atoms: O5'_1511  and  C5'_1512
REMARK  258  A    between atoms: C5'_1512  and  C4'_1513
REMARK  259  A    between atoms: C3'_1515  and  O3'_1516
REMARK  260  A    between atoms: O3'_1516  and  P_1528
REMARK  261  A    between atoms: C2'_1517  and  O2'_1518
REMARK  262  A    between atoms: C1'_1519  and  N1_1520
REMARK  263  A    between atoms: P_1528  and  OP1_1529
REMARK  264  A    between atoms: P_1528  and  O5'_1531
REMARK  265  A    between atoms: O5'_1531  and  C5'_1532
REMARK  266  A    between atoms: C5'_1532  and  C4'_1533
REMARK  267  A    between atoms: C3'_1535  and  O3'_1536
REMARK  268  A    between atoms: O3'_1536  and  P_1548
REMARK  269  A    between atoms: C2'_1537  and  O2'_1538
REMARK  270  A    between atoms: C1'_1539  and  N1_1540
REMARK  271  A    between atoms: P_1548  and  OP1_1549
REMARK  272  A    between atoms: P_1548  and  O5'_1551
REMARK  273  A    between atoms: O5'_1551  and  C5'_1552
REMARK  274  A    between atoms: C5'_1552  and  C4'_1553
REMARK  275  A    between atoms: C3'_1555  and  O3'_1556
REMARK  276  A    between atoms: O3'_1556  and  P_1568
REMARK  277  A    between atoms: C2'_1557  and  O2'_1558
REMARK  278  A    between atoms: C1'_1559  and  N1_1560
REMARK  279  A    between atoms: P_1568  and  OP2_1570
REMARK  280  A    between atoms: P_1568  and  O5'_1571
REMARK  281  A    between atoms: O5'_1571  and  C5'_1572
REMARK  282  A    between atoms: C5'_1572  and  C4'_1573
REMARK  283  A    between atoms: C3'_1575  and  O3'_1576
REMARK  284  A    between atoms: C2'_1577  and  O2'_1578
REMARK  285  A    between atoms: C1'_1579  and  N9_1580
REMARK                            x       y       z     vdW  Elec       q    Type
REMARK                         _______ _______ _______ _____ _____    ______ ____
ROOT
ATOM      1  P   C   B   1     -14.980 -16.893  37.056  0.00  0.00    +0.000 P 
ATOM      2  OP1 C   B   1     -16.431 -17.087  37.021  0.00  0.00    +0.000 OA
ATOM      3  OP2 C   B   1     -14.385 -16.270  35.845  0.00  0.00    +0.000 OA
ATOM      4  O5' C   B   1     -14.618 -15.782  38.056  0.00  0.00    +0.000 OA
ATOM      5  C5' C   B   1     -15.045 -15.646  39.385  0.00  0.00    +0.000 C 
ATOM      6  C4' C   B   1     -14.264 -14.583  40.094  0.00  0.00    +0.000 C 
ATOM      7  O4' C   B   1     -14.168 -13.430  39.235  0.00  0.00    +0.000 OA
ATOM      8  C3' C   B   1     -14.868 -14.091  41.409  0.00  0.00    +0.000 C 
ATOM      9  O3' C   B   1     -13.808 -13.730  42.293  0.00  0.00    +0.000 OA
ATOM     10  C2' C   B   1     -15.612 -12.835  40.991  0.00  0.00    +0.000 C 
ATOM     11  C1' C   B   1     -14.726 -12.295  39.876  0.00  0.00    +0.000 C 
ATOM     12  N1  C   B   1     -15.403 -11.467  38.862  0.00  0.00    +0.000 N 
ATOM     13  C2  C   B   1     -16.795 -11.359  38.822  0.00  0.00    +0.000 A 
ATOM     14  O2  C   B   1     -17.504 -11.959  39.647  0.00  0.00    +0.000 OA
ATOM     15  N3  C   B   1     -17.360 -10.588  37.864  0.00  0.00    +0.000 NA
ATOM     16  C4  C   B   1     -16.589  -9.947  36.966  0.00  0.00    +0.000 A 
ATOM     17  N4  C   B   1     -17.198  -9.205  36.034  0.00  0.00    +0.000 N 
ATOM     18  C5  C   B   1     -15.178 -10.041  36.986  0.00  0.00    +0.000 A 
ATOM     19  C6  C   B   1     -14.625 -10.804  37.937  0.00  0.00    +0.000 A 
ATOM     20  P   U   B   2     -13.294 -14.881  43.206  0.00  0.00    +0.000 P 
ATOM     21  OP1 U   B   2     -14.443 -15.757  43.581  0.00  0.00    +0.000 OA
ATOM     22  O5' U   B   2     -12.311 -15.718  42.304  0.00  0.00    +0.000 OA
ATOM     23  C5' U   B   2     -11.077 -15.188  41.835  0.00  0.00    +0.000 C 
ATOM     24  C4' U   B   2     -10.406 -16.137  40.872  0.00  0.00    +0.000 C 
ATOM     25  O4' U   B   2     -10.170 -17.396  41.551  0.00  0.00    +0.000 OA
ATOM     26  C3' U   B   2     -11.204 -16.472  39.625  0.00  0.00    +0.000 C 
ATOM     27  O3' U   B   2     -10.323 -16.640  38.519  0.00  0.00    +0.000 OA
ATOM     28  C2' U   B   2     -11.863 -17.796  39.977  0.00  0.00    +0.000 C 
ATOM     29  C1' U   B   2     -10.788 -18.444  40.852  0.00  0.00    +0.000 C 
ATOM     30  P   A   B   3     -10.264 -15.485  37.432  0.00  0.00    +0.000 P 
ATOM     31  OP1 A   B   3      -8.900 -15.502  36.857  0.00  0.00    +0.000 OA
ATOM     32  O5' A   B   3     -11.272 -16.041  36.322  0.00  0.00    +0.000 OA
ATOM     33  C5' A   B   3     -11.224 -17.398  35.916  0.00  0.00    +0.000 C 
ATOM     34  C4' A   B   3     -12.248 -17.704  34.851  0.00  0.00    +0.000 C 
ATOM     35  O4' A   B   3     -13.585 -17.433  35.353  0.00  0.00    +0.000 OA
ATOM     36  C3' A   B   3     -12.170 -16.865  33.589  0.00  0.00    +0.000 C 
ATOM     37  O3' A   B   3     -11.158 -17.311  32.696  0.00  0.00    +0.000 OA
ATOM     38  C2' A   B   3     -13.580 -16.989  33.023  0.00  0.00    +0.000 C 
ATOM     39  C1' A   B   3     -14.410 -16.964  34.302  0.00  0.00    +0.000 C 
ATOM     40  N9  A   B   3     -14.865 -15.605  34.625  0.00  0.00    +0.000 NA
ATOM     41  C8  A   B   3     -14.414 -14.777  35.617  0.00  0.00    +0.000 C 
ATOM     42  N7  A   B   3     -15.016 -13.613  35.645  0.00  0.00    +0.000 NA
ATOM     43  C5  A   B   3     -15.928 -13.684  34.601  0.00  0.00    +0.000 C 
ATOM     44  C6  A   B   3     -16.873 -12.772  34.106  0.00  0.00    +0.000 C 
ATOM     45  N6  A   B   3     -17.065 -11.551  34.618  0.00  0.00    +0.000 NA
ATOM     46  N1  A   B   3     -17.622 -13.156  33.052  0.00  0.00    +0.000 NA
ATOM     47  C2  A   B   3     -17.432 -14.377  32.535  0.00  0.00    +0.000 C 
ATOM     48  N3  A   B   3     -16.577 -15.319  32.915  0.00  0.00    +0.000 N 
ATOM     49  C4  A   B   3     -15.845 -14.902  33.966  0.00  0.00    +0.000 C 
ATOM     50  P   A   B   4     -10.338 -16.255  31.841  0.00  0.00    +0.000 P 
ATOM     51  OP1 A   B   4      -9.320 -17.004  31.061  0.00  0.00    +0.000 OA
ATOM     52  O5' A   B   4     -11.431 -15.697  30.824  0.00  0.00    +0.000 OA
ATOM     53  C5' A   B   4     -12.129 -16.571  29.961  0.00  0.00    +0.000 C 
ATOM     54  C4' A   B   4     -13.228 -15.846  29.228  0.00  0.00    +0.000 C 
ATOM     55  O4' A   B   4     -14.231 -15.384  30.167  0.00  0.00    +0.000 OA
ATOM     56  C3' A   B   4     -12.804 -14.582  28.503  0.00  0.00    +0.000 C 
ATOM     57  O3' A   B   4     -12.207 -14.862  27.248  0.00  0.00    +0.000 OA
ATOM     58  C2' A   B   4     -14.107 -13.803  28.406  0.00  0.00    +0.000 C 
ATOM     59  C1' A   B   4     -14.754 -14.142  29.746  0.00  0.00    +0.000 C 
ATOM     60  P   U   B   5     -11.378 -13.731  26.500  0.00  0.00    +0.000 P 
ATOM     61  OP1 U   B   5     -10.569 -14.389  25.446  0.00  0.00    +0.000 OA
ATOM     62  O5' U   B   5     -12.521 -12.880  25.800  0.00  0.00    +0.000 OA
ATOM     63  C5' U   B   5     -12.252 -11.560  25.372  0.00  0.00    +0.000 C 
ATOM     64  C4' U   B   5     -13.513 -10.729  25.382  0.00  0.00    +0.000 C 
ATOM     65  O4' U   B   5     -14.134 -10.788  26.689  0.00  0.00    +0.000 OA
ATOM     66  C3' U   B   5     -13.301  -9.251  25.135  0.00  0.00    +0.000 C 
ATOM     67  O3' U   B   5     -13.207  -8.966  23.746  0.00  0.00    +0.000 OA
ATOM     68  C2' U   B   5     -14.509  -8.613  25.806  0.00  0.00    +0.000 C 
ATOM     69  C1' U   B   5     -14.707  -9.544  27.011  0.00  0.00    +0.000 C 
ATOM     70  P   A   B   6     -11.999  -8.148  23.174  0.00  0.00    +0.000 P 
ATOM     71  OP1 A   B   6     -11.665  -8.690  21.822  0.00  0.00    +0.000 OA
ATOM     72  O5' A   B   6     -12.634  -6.708  22.983  0.00  0.00    +0.000 OA
ATOM     73  C5' A   B   6     -12.057  -5.592  23.616  0.00  0.00    +0.000 C 
ATOM     74  C4' A   B   6     -13.115  -4.721  24.240  0.00  0.00    +0.000 C 
ATOM     75  O4' A   B   6     -13.663  -5.374  25.407  0.00  0.00    +0.000 OA
ATOM     76  C3' A   B   6     -12.617  -3.383  24.761  0.00  0.00    +0.000 C 
ATOM     77  O3' A   B   6     -12.528  -2.418  23.728  0.00  0.00    +0.000 OA
ATOM     78  C2' A   B   6     -13.633  -3.044  25.841  0.00  0.00    +0.000 C 
ATOM     79  C1' A   B   6     -13.905  -4.430  26.426  0.00  0.00    +0.000 C 
ATOM     80  P   C   B   7     -11.145  -1.741  23.390  0.00  0.00    +0.000 P 
ATOM     81  OP1 C   B   7     -11.215  -1.237  21.996  0.00  0.00    +0.000 OA
ATOM     82  O5' C   B   7     -11.146  -0.497  24.376  0.00  0.00    +0.000 OA
ATOM     83  C5' C   B   7     -12.270   0.370  24.436  0.00  0.00    +0.000 C 
ATOM     84  C4' C   B   7     -12.410   0.992  25.801  0.00  0.00    +0.000 C 
ATOM     85  O4' C   B   7     -12.524  -0.038  26.810  0.00  0.00    +0.000 OA
ATOM     86  C3' C   B   7     -11.237   1.826  26.274  0.00  0.00    +0.000 C 
ATOM     87  O3' C   B   7     -11.263   3.128  25.711  0.00  0.00    +0.000 OA
ATOM     88  C2' C   B   7     -11.413   1.828  27.789  0.00  0.00    +0.000 C 
ATOM     89  C1' C   B   7     -11.970   0.420  28.031  0.00  0.00    +0.000 C 
ATOM     90  P   U   B   8      -9.946   3.896  25.301  0.00  0.00    +0.000 P 
ATOM     91  OP2 U   B   8     -10.201   4.497  23.972  0.00  0.00    +0.000 OA
ATOM     92  O5' U   B   8      -8.817   2.778  25.119  0.00  0.00    +0.000 OA
ATOM     93  C5' U   B   8      -8.497   2.276  23.832  0.00  0.00    +0.000 C 
ATOM     94  C4' U   B   8      -7.239   2.920  23.286  0.00  0.00    +0.000 C 
ATOM     95  O4' U   B   8      -7.347   4.349  23.406  0.00  0.00    +0.000 OA
ATOM     96  C3' U   B   8      -5.938   2.547  23.959  0.00  0.00    +0.000 C 
ATOM     97  O3' U   B   8      -5.281   1.509  23.250  0.00  0.00    +0.000 OA
ATOM     98  C2' U   B   8      -5.073   3.808  23.911  0.00  0.00    +0.000 C 
ATOM     99  C1' U   B   8      -6.052   4.906  23.464  0.00  0.00    +0.000 C 
ATOM    100  P   A   B   9      -5.792   0.096  23.301  0.00  0.00    +0.000 P 
ATOM    101  OP1 A   B   9      -5.343  -0.609  22.075  0.00  0.00    +0.000 OA
ATOM    102  O5' A   B   9      -4.999  -0.507  24.535  0.00  0.00    +0.000 OA
ATOM    103  C5' A   B   9      -3.588  -0.679  24.473  0.00  0.00    +0.000 C 
ATOM    104  C4' A   B   9      -2.999  -0.791  25.853  0.00  0.00    +0.000 C 
ATOM    105  O4' A   B   9      -2.957   0.503  26.492  0.00  0.00    +0.000 OA
ATOM    106  C3' A   B   9      -3.780  -1.657  26.821  0.00  0.00    +0.000 C 
ATOM    107  O3' A   B   9      -3.485  -3.020  26.647  0.00  0.00    +0.000 OA
ATOM    108  C2' A   B   9      -3.347  -1.132  28.185  0.00  0.00    +0.000 C 
ATOM    109  C1' A   B   9      -3.103   0.354  27.883  0.00  0.00    +0.000 C 
ATOM    110  P   U   B  10      -4.554  -4.010  26.509  0.00  0.00    +0.000 P 
ATOM    111  OP1 U   B  10      -4.203  -4.919  25.397  0.00  0.00    +0.000 OA
ATOM    112  O5' U   B  10      -4.327  -4.780  27.886  0.00  0.00    +0.000 OA
ATOM    113  C5' U   B  10      -3.024  -5.306  28.162  0.00  0.00    +0.000 C 
ATOM    114  C4' U   B  10      -2.887  -6.651  27.527  0.00  0.00    +0.000 C 
ATOM    115  O4' U   B  10      -1.482  -7.020  27.383  0.00  0.00    +0.000 OA
ATOM    116  C3' U   B  10      -3.563  -7.794  28.282  0.00  0.00    +0.000 C 
ATOM    117  O3' U   B  10      -4.189  -8.663  27.331  0.00  0.00    +0.000 OA
ATOM    118  C2' U   B  10      -2.388  -8.500  28.946  0.00  0.00    +0.000 C 
ATOM    119  C1' U   B  10      -1.284  -8.309  27.911  0.00  0.00    +0.000 C 
ATOM    120  P   U   B  11      -5.427  -9.465  27.749  0.00  0.00    +0.000 P 
ATOM    121  OP1 U   B  11      -6.342  -9.583  26.585  0.00  0.00    +0.000 OA
ATOM    122  O5' U   B  11      -4.728 -10.860  28.005  0.00  0.00    +0.000 OA
ATOM    123  C5' U   B  11      -5.270 -12.051  27.499  0.00  0.00    +0.000 C 
ATOM    124  C4' U   B  11      -4.385 -12.696  26.467  0.00  0.00    +0.000 C 
ATOM    125  O4' U   B  11      -3.193 -11.900  26.207  0.00  0.00    +0.000 OA
ATOM    126  C3' U   B  11      -3.818 -14.054  26.834  0.00  0.00    +0.000 C 
ATOM    127  O3' U   B  11      -4.782 -15.089  26.722  0.00  0.00    +0.000 OA
ATOM    128  C2' U   B  11      -2.657 -14.195  25.856  0.00  0.00    +0.000 C 
ATOM    129  C1' U   B  11      -2.125 -12.752  25.818  0.00  0.00    +0.000 C 
ATOM    130  P   U   B  12      -4.720 -16.286  27.754  0.00  0.00    +0.000 P 
ATOM    131  OP1 U   B  12      -5.974 -17.064  27.592  0.00  0.00    +0.000 OA
ATOM    132  O5' U   B  12      -3.519 -17.149  27.183  0.00  0.00    +0.000 OA
ATOM    133  C5' U   B  12      -3.557 -17.661  25.855  0.00  0.00    +0.000 C 
ATOM    134  C4' U   B  12      -2.213 -18.195  25.424  0.00  0.00    +0.000 C 
ATOM    135  O4' U   B  12      -1.248 -17.114  25.351  0.00  0.00    +0.000 OA
ATOM    136  C3' U   B  12      -1.565 -19.194  26.365  0.00  0.00    +0.000 C 
ATOM    137  O3' U   B  12      -2.100 -20.501  26.234  0.00  0.00    +0.000 OA
ATOM    138  C2' U   B  12      -0.097 -19.100  25.975  0.00  0.00    +0.000 C 
ATOM    139  C1' U   B  12       0.036 -17.597  25.697  0.00  0.00    +0.000 C 
ATOM    140  P   C   B  13      -2.133 -21.452  27.516  0.00  0.00    +0.000 P 
ATOM    141  OP1 C   B  13      -2.882 -22.668  27.126  0.00  0.00    +0.000 OA
ATOM    142  O5' C   B  13      -0.605 -21.847  27.710  0.00  0.00    +0.000 OA
ATOM    143  C5' C   B  13       0.091 -22.564  26.699  0.00  0.00    +0.000 C 
ATOM    144  C4' C   B  13       1.561 -22.688  27.019  0.00  0.00    +0.000 C 
ATOM    145  O4' C   B  13       2.195 -21.383  26.986  0.00  0.00    +0.000 OA
ATOM    146  C3' C   B  13       1.901 -23.215  28.399  0.00  0.00    +0.000 C 
ATOM    147  O3' C   B  13       1.766 -24.621  28.510  0.00  0.00    +0.000 OA
ATOM    148  C2' C   B  13       3.332 -22.729  28.578  0.00  0.00    +0.000 C 
ATOM    149  C1' C   B  13       3.257 -21.348  27.920  0.00  0.00    +0.000 C 
ATOM    150  P   A   B  14       1.323 -25.252  29.921  0.00  0.00    +0.000 P 
ATOM    151  OP1 A   B  14       1.268 -26.717  29.746  0.00  0.00    +0.000 OA
ATOM    152  O5' A   B  14       2.548 -24.909  30.879  0.00  0.00    +0.000 OA
ATOM    153  C5' A   B  14       3.825 -25.473  30.635  0.00  0.00    +0.000 C 
ATOM    154  C4' A   B  14       4.897 -24.835  31.492  0.00  0.00    +0.000 C 
ATOM    155  O4' A   B  14       4.968 -23.409  31.240  0.00  0.00    +0.000 OA
ATOM    156  C3' A   B  14       4.711 -24.915  32.993  0.00  0.00    +0.000 C 
ATOM    157  O3' A   B  14       5.022 -26.187  33.530  0.00  0.00    +0.000 OA
ATOM    158  C2' A   B  14       5.642 -23.812  33.480  0.00  0.00    +0.000 C 
ATOM    159  C1' A   B  14       5.429 -22.748  32.405  0.00  0.00    +0.000 C 
ATOM    160  P   U   B  15       4.228 -26.684  34.826  0.00  0.00    +0.000 P 
ATOM    161  OP2 U   B  15       2.770 -26.577  34.562  0.00  0.00    +0.000 OA
ATOM    162  O5' U   B  15       4.613 -25.602  35.928  0.00  0.00    +0.000 OA
ATOM    163  C5' U   B  15       5.970 -25.352  36.256  0.00  0.00    +0.000 C 
ATOM    164  C4' U   B  15       6.116 -24.126  37.113  0.00  0.00    +0.000 C 
ATOM    165  O4' U   B  15       5.560 -22.973  36.443  0.00  0.00    +0.000 OA
ATOM    166  C3' U   B  15       5.395 -24.160  38.440  0.00  0.00    +0.000 C 
ATOM    167  O3' U   B  15       6.112 -24.929  39.388  0.00  0.00    +0.000 OA
ATOM    168  C2' U   B  15       5.253 -22.677  38.784  0.00  0.00    +0.000 C 
ATOM    169  C1' U   B  15       5.041 -22.064  37.394  0.00  0.00    +0.000 C 
ATOM    170  P   C   B  16       6.095 -24.620  40.932  0.00  0.00    +0.000 P 
ATOM    171  OP2 C   B  16       4.750 -24.210  41.398  0.00  0.00    +0.000 OA
ATOM    172  O5' C   B  16       7.053 -23.358  41.030  0.00  0.00    +0.000 OA
ATOM    173  C5' C   B  16       7.473 -22.888  42.306  0.00  0.00    +0.000 C 
ATOM    174  C4' C   B  16       8.970 -22.712  42.347  0.00  0.00    +0.000 C 
ATOM    175  O4' C   B  16       9.618 -23.928  41.901  0.00  0.00    +0.000 OA
ATOM    176  C3' C   B  16       9.540 -21.635  41.439  0.00  0.00    +0.000 C 
ATOM    177  O3' C   B  16       9.400 -20.337  41.983  0.00  0.00    +0.000 OA
ATOM    178  C2' C   B  16      10.991 -22.074  41.297  0.00  0.00    +0.000 C 
ATOM    179  C1' C   B  16      10.845 -23.600  41.266  0.00  0.00    +0.000 C 
ATOM    180  P   C   B  17       9.228 -19.053  41.041  0.00  0.00    +0.000 P 
ATOM    181  OP2 C   B  17       8.310 -19.417  39.933  0.00  0.00    +0.000 OA
ATOM    182  O5' C   B  17      10.689 -18.863  40.441  0.00  0.00    +0.000 OA
ATOM    183  C5' C   B  17      11.787 -18.549  41.291  0.00  0.00    +0.000 C 
ATOM    184  C4' C   B  17      13.079 -18.483  40.513  0.00  0.00    +0.000 C 
ATOM    185  O4' C   B  17      13.400 -19.795  39.985  0.00  0.00    +0.000 OA
ATOM    186  C3' C   B  17      13.068 -17.586  39.288  0.00  0.00    +0.000 C 
ATOM    187  O3' C   B  17      13.264 -16.218  39.616  0.00  0.00    +0.000 OA
ATOM    188  C2' C   B  17      14.192 -18.169  38.446  0.00  0.00    +0.000 C 
ATOM    189  C1' C   B  17      14.039 -19.665  38.733  0.00  0.00    +0.000 C 
ATOM    190  P   G   B  18      12.717 -15.093  38.640  0.00  0.00    +0.000 P 
ATOM    191  OP2 G   B  18      11.243 -15.202  38.555  0.00  0.00    +0.000 OA
ATOM    192  O5' G   B  18      13.330 -15.546  37.240  0.00  0.00    +0.000 OA
ATOM    193  C5' G   B  18      12.675 -15.235  36.017  0.00  0.00    +0.000 C 
ATOM    194  C4' G   B  18      12.573 -16.463  35.145  0.00  0.00    +0.000 C 
ATOM    195  O4' G   B  18      11.508 -17.316  35.631  0.00  0.00    +0.000 OA
ATOM    196  C3' G   B  18      12.215 -16.219  33.689  0.00  0.00    +0.000 C 
ATOM    197  O3' G   B  18      13.338 -15.834  32.914  0.00  0.00    +0.000 OA
ATOM    198  C2' G   B  18      11.612 -17.551  33.275  0.00  0.00    +0.000 C 
ATOM    199  C1' G   B  18      10.857 -17.945  34.545  0.00  0.00    +0.000 C 
ATOM    200  P   A   B  19      13.171 -14.788  31.717  0.00  0.00    +0.000 P 
ATOM    201  OP1 A   B  19      14.531 -14.408  31.261  0.00  0.00    +0.000 OA
ATOM    202  O5' A   B  19      12.487 -15.643  30.564  0.00  0.00    +0.000 OA
ATOM    203  C5' A   B  19      13.142 -16.775  30.004  0.00  0.00    +0.000 C 
ATOM    204  C4' A   B  19      12.270 -17.480  28.994  0.00  0.00    +0.000 C 
ATOM    205  O4' A   B  19      11.104 -18.039  29.656  0.00  0.00    +0.000 OA
ATOM    206  C3' A   B  19      11.687 -16.597  27.904  0.00  0.00    +0.000 C 
ATOM    207  O3' A   B  19      12.609 -16.344  26.853  0.00  0.00    +0.000 OA
ATOM    208  C2' A   B  19      10.464 -17.390  27.462  0.00  0.00    +0.000 C 
ATOM    209  C1' A   B  19       9.982 -17.963  28.798  0.00  0.00    +0.000 C 
ATOM    210  P   A   B  20      12.564 -14.933  26.074  0.00  0.00    +0.000 P 
ATOM    211  OP1 A   B  20      13.811 -14.819  25.276  0.00  0.00    +0.000 OA
ATOM    212  O5' A   B  20      11.348 -15.116  25.062  0.00  0.00    +0.000 OA
ATOM    213  C5' A   B  20      11.377 -16.128  24.061  0.00  0.00    +0.000 C 
ATOM    214  C4' A   B  20      10.011 -16.345  23.456  0.00  0.00    +0.000 C 
ATOM    215  O4' A   B  20       9.078 -16.771  24.487  0.00  0.00    +0.000 OA
ATOM    216  C3' A   B  20       9.351 -15.118  22.848  0.00  0.00    +0.000 C 
ATOM    217  O3' A   B  20       9.825 -14.827  21.540  0.00  0.00    +0.000 OA
ATOM    218  C2' A   B  20       7.876 -15.492  22.884  0.00  0.00    +0.000 C 
ATOM    219  C1' A   B  20       7.791 -16.247  24.216  0.00  0.00    +0.000 C 
ATOM    220  P   A   B  21       9.929 -13.296  21.066  0.00  0.00    +0.000 P 
ATOM    221  OP1 A   B  21      10.620 -13.288  19.750  0.00  0.00    +0.000 OA
ATOM    222  O5' A   B  21       8.409 -12.879  20.830  0.00  0.00    +0.000 OA
ATOM    223  C5' A   B  21       7.622 -13.530  19.841  0.00  0.00    +0.000 C 
ATOM    224  C4' A   B  21       6.151 -13.244  20.041  0.00  0.00    +0.000 C 
ATOM    225  O4' A   B  21       5.733 -13.713  21.350  0.00  0.00    +0.000 OA
ATOM    226  C3' A   B  21       5.752 -11.778  20.034  0.00  0.00    +0.000 C 
ATOM    227  O3' A   B  21       5.624 -11.242  18.725  0.00  0.00    +0.000 OA
ATOM    228  C2' A   B  21       4.442 -11.798  20.807  0.00  0.00    +0.000 C 
ATOM    229  C1' A   B  21       4.752 -12.843  21.882  0.00  0.00    +0.000 C 
ATOM    230  P   C   B  22       5.925  -9.677  18.486  0.00  0.00    +0.000 P 
ATOM    231  OP1 C   B  22       5.876  -9.439  17.019  0.00  0.00    +0.000 OA
ATOM    232  O5' C   B  22       4.670  -8.954  19.148  0.00  0.00    +0.000 OA
ATOM    233  C5' C   B  22       3.359  -9.180  18.657  0.00  0.00    +0.000 C 
ATOM    234  C4' C   B  22       2.313  -8.577  19.567  0.00  0.00    +0.000 C 
ATOM    235  O4' C   B  22       2.378  -9.199  20.877  0.00  0.00    +0.000 OA
ATOM    236  C3' C   B  22       2.463  -7.097  19.861  0.00  0.00    +0.000 C 
ATOM    237  O3' C   B  22       1.980  -6.274  18.809  0.00  0.00    +0.000 OA
ATOM    238  C2' C   B  22       1.673  -6.944  21.154  0.00  0.00    +0.000 C 
ATOM    239  C1' C   B  22       2.025  -8.254  21.872  0.00  0.00    +0.000 C 
ATOM    240  P   U   B  23       2.665  -4.829  18.548  0.00  0.00    +0.000 P 
ATOM    241  OP1 U   B  23       2.104  -4.283  17.287  0.00  0.00    +0.000 OA
ATOM    242  O5' U   B  23       2.126  -3.942  19.756  0.00  0.00    +0.000 OA
ATOM    243  C5' U   B  23       0.746  -3.651  19.892  0.00  0.00    +0.000 C 
ATOM    244  C4' U   B  23       0.455  -2.927  21.185  0.00  0.00    +0.000 C 
ATOM    245  O4' U   B  23       0.768  -3.787  22.313  0.00  0.00    +0.000 OA
ATOM    246  C3' U   B  23       1.271  -1.677  21.440  0.00  0.00    +0.000 C 
ATOM    247  O3' U   B  23       0.777  -0.544  20.739  0.00  0.00    +0.000 OA
ATOM    248  C2' U   B  23       1.185  -1.534  22.951  0.00  0.00    +0.000 C 
ATOM    249  C1' U   B  23       1.241  -3.003  23.393  0.00  0.00    +0.000 C 
ATOM    250  P   U   B  24       1.815   0.574  20.194  0.00  0.00    +0.000 P 
ATOM    251  OP1 U   B  24       1.031   1.575  19.427  0.00  0.00    +0.000 OA
ATOM    252  O5' U   B  24       2.342   1.269  21.525  0.00  0.00    +0.000 OA
ATOM    253  C5' U   B  24       1.472   2.023  22.355  0.00  0.00    +0.000 C 
ATOM    254  C4' U   B  24       2.188   2.563  23.570  0.00  0.00    +0.000 C 
ATOM    255  O4' U   B  24       2.609   1.464  24.422  0.00  0.00    +0.000 OA
ATOM    256  C3' U   B  24       3.467   3.327  23.298  0.00  0.00    +0.000 C 
ATOM    257  O3' U   B  24       3.232   4.668  22.890  0.00  0.00    +0.000 OA
ATOM    258  C2' U   B  24       4.199   3.222  24.626  0.00  0.00    +0.000 C 
ATOM    259  C1' U   B  24       3.830   1.796  25.056  0.00  0.00    +0.000 C 
ATOM    260  P   U   B  25       4.195   5.355  21.783  0.00  0.00    +0.000 P 
ATOM    261  OP2 U   B  25       4.404   4.385  20.681  0.00  0.00    +0.000 OA
ATOM    262  O5' U   B  25       5.579   5.541  22.552  0.00  0.00    +0.000 OA
ATOM    263  C5' U   B  25       5.682   6.408  23.671  0.00  0.00    +0.000 C 
ATOM    264  C4' U   B  25       7.029   6.293  24.344  0.00  0.00    +0.000 C 
ATOM    265  O4' U   B  25       7.209   4.942  24.850  0.00  0.00    +0.000 OA
ATOM    266  C3' U   B  25       8.239   6.515  23.457  0.00  0.00    +0.000 C 
ATOM    267  O3' U   B  25       8.514   7.889  23.234  0.00  0.00    +0.000 OA
ATOM    268  C2' U   B  25       9.338   5.798  24.222  0.00  0.00    +0.000 C 
ATOM    269  C1' U   B  25       8.575   4.582  24.767  0.00  0.00    +0.000 C 
ATOM    270  P   U   B  26       9.278   8.363  21.895  0.00  0.00    +0.000 P 
ATOM    271  OP2 U   B  26       8.765   7.556  20.760  0.00  0.00    +0.000 OA
ATOM    272  O5' U   B  26      10.791   7.940  22.162  0.00  0.00    +0.000 OA
ATOM    273  C5' U   B  26      11.529   8.506  23.236  0.00  0.00    +0.000 C 
ATOM    274  C4' U   B  26      12.811   7.747  23.491  0.00  0.00    +0.000 C 
ATOM    275  O4' U   B  26      12.508   6.351  23.767  0.00  0.00    +0.000 OA
ATOM    276  C3' U   B  26      13.790   7.686  22.334  0.00  0.00    +0.000 C 
ATOM    277  O3' U   B  26      14.573   8.863  22.216  0.00  0.00    +0.000 OA
ATOM    278  C2' U   B  26      14.613   6.452  22.665  0.00  0.00    +0.000 C 
ATOM    279  C1' U   B  26      13.543   5.528  23.263  0.00  0.00    +0.000 C 
ATOM    280  P   U   B  27      15.191   9.309  20.796  0.00  0.00    +0.000 P 
ATOM    281  OP2 U   B  27      14.154   9.071  19.756  0.00  0.00    +0.000 OA
ATOM    282  O5' U   B  27      16.374   8.265  20.569  0.00  0.00    +0.000 OA
ATOM    283  C5' U   B  27      17.488   8.214  21.448  0.00  0.00    +0.000 C 
ATOM    284  C4' U   B  27      18.382   7.034  21.139  0.00  0.00    +0.000 C 
ATOM    285  O4' U   B  27      17.645   5.795  21.326  0.00  0.00    +0.000 OA
ATOM    286  C3' U   B  27      18.889   6.951  19.710  0.00  0.00    +0.000 C 
ATOM    287  O3' U   B  27      20.012   7.790  19.482  0.00  0.00    +0.000 OA
ATOM    288  C2' U   B  27      19.200   5.469  19.558  0.00  0.00    +0.000 C 
ATOM    289  C1' U   B  27      18.068   4.836  20.378  0.00  0.00    +0.000 C 
ATOM    290  P   U   B  28      20.230   8.519  18.067  0.00  0.00    +0.000 P 
ATOM    291  OP2 U   B  28      18.899   8.943  17.560  0.00  0.00    +0.000 OA
ATOM    292  O5' U   B  28      20.761   7.333  17.144  0.00  0.00    +0.000 OA
ATOM    293  C5' U   B  28      21.994   6.690  17.411  0.00  0.00    +0.000 C 
ATOM    294  C4' U   B  28      22.162   5.438  16.580  0.00  0.00    +0.000 C 
ATOM    295  O4' U   B  28      21.143   4.466  16.942  0.00  0.00    +0.000 OA
ATOM    296  C3' U   B  28      21.987   5.613  15.083  0.00  0.00    +0.000 C 
ATOM    297  O3' U   B  28      23.149   6.131  14.451  0.00  0.00    +0.000 OA
ATOM    298  C2' U   B  28      21.629   4.204  14.630  0.00  0.00    +0.000 C 
ATOM    299  C1' U   B  28      20.756   3.728  15.799  0.00  0.00    +0.000 C 
ATOM    300  P   A   B  29      23.021   7.095  13.177  0.00  0.00    +0.000 P 
ATOM    301  OP1 A   B  29      24.367   7.624  12.854  0.00  0.00    +0.000 OA
ATOM    302  O5' A   B  29      22.588   6.085  12.019  0.00  0.00    +0.000 OA
ATOM    303  C5' A   B  29      23.462   5.050  11.593  0.00  0.00    +0.000 C 
ATOM    304  C4' A   B  29      22.757   4.071  10.682  0.00  0.00    +0.000 C 
ATOM    305  O4' A   B  29      21.684   3.407  11.406  0.00  0.00    +0.000 OA
ATOM    306  C3' A   B  29      22.062   4.672   9.472  0.00  0.00    +0.000 C 
ATOM    307  O3' A   B  29      22.958   4.957   8.407  0.00  0.00    +0.000 OA
ATOM    308  C2' A   B  29      21.034   3.604   9.128  0.00  0.00    +0.000 C 
ATOM    309  C1' A   B  29      20.611   3.137  10.526  0.00  0.00    +0.000 C 
ATOM    310  P   A   B  30      22.656   6.172   7.407  0.00  0.00    +0.000 P 
ATOM    311  OP1 A   B  30      23.852   6.363   6.551  0.00  0.00    +0.000 OA
ATOM    312  O5' A   B  30      21.478   5.595   6.496  0.00  0.00    +0.000 OA
ATOM    313  C5' A   B  30      21.686   4.459   5.672  0.00  0.00    +0.000 C 
ATOM    314  C4' A   B  30      20.379   3.924   5.129  0.00  0.00    +0.000 C 
ATOM    315  O4' A   B  30      19.519   3.510   6.225  0.00  0.00    +0.000 OA
ATOM    316  C3' A   B  30      19.525   4.913   4.351  0.00  0.00    +0.000 C 
ATOM    317  O3' A   B  30      19.967   5.090   3.013  0.00  0.00    +0.000 OA
ATOM    318  C2' A   B  30      18.140   4.289   4.453  0.00  0.00    +0.000 C 
ATOM    319  C1' A   B  30      18.165   3.742   5.886  0.00  0.00    +0.000 C 
ATOM    320  P   A   B  31      19.726   6.489   2.276  0.00  0.00    +0.000 P 
ATOM    321  OP1 A   B  31      20.473   6.448   0.992  0.00  0.00    +0.000 OA
ATOM    322  O5' A   B  31      18.164   6.458   1.947  0.00  0.00    +0.000 OA
ATOM    323  C5' A   B  31      17.624   5.465   1.091  0.00  0.00    +0.000 C 
ATOM    324  C4' A   B  31      16.112   5.485   1.108  0.00  0.00    +0.000 C 
ATOM    325  O4' A   B  31      15.624   5.181   2.440  0.00  0.00    +0.000 OA
ATOM    326  C3' A   B  31      15.460   6.818   0.780  0.00  0.00    +0.000 C 
ATOM    327  O3' A   B  31      15.416   7.081  -0.617  0.00  0.00    +0.000 OA
ATOM    328  C2' A   B  31      14.083   6.664   1.410  0.00  0.00    +0.000 C 
ATOM    329  C1' A   B  31      14.422   5.889   2.687  0.00  0.00    +0.000 C 
ATOM    330  P   A   B  32      15.461   8.591  -1.143  0.00  0.00    +0.000 P 
ATOM    331  OP1 A   B  32      15.739   8.545  -2.600  0.00  0.00    +0.000 OA
ATOM    332  O5' A   B  32      13.961   9.091  -0.938  0.00  0.00    +0.000 OA
ATOM    333  C5' A   B  32      12.885   8.433  -1.582  0.00  0.00    +0.000 C 
ATOM    334  C4' A   B  32      11.559   8.860  -0.995  0.00  0.00    +0.000 C 
ATOM    335  O4' A   B  32      11.507   8.506   0.410  0.00  0.00    +0.000 OA
ATOM    336  C3' A   B  32      11.283  10.353  -1.013  0.00  0.00    +0.000 C 
ATOM    337  O3' A   B  32      10.799  10.800  -2.275  0.00  0.00    +0.000 OA
ATOM    338  C2' A   B  32      10.272  10.511   0.115  0.00  0.00    +0.000 C 
ATOM    339  C1' A   B  32      10.786   9.487   1.132  0.00  0.00    +0.000 C 
ATOM    340  P   U   B  33      11.171  12.249  -2.819  0.00  0.00    +0.000 P 
ATOM    341  OP1 U   B  33      10.748  12.312  -4.241  0.00  0.00    +0.000 OA
ATOM    342  O5' U   B  33      10.225  13.213  -1.972  0.00  0.00    +0.000 OA
ATOM    343  C5' U   B  33       8.816  13.110  -2.054  0.00  0.00    +0.000 C 
ATOM    344  C4' U   B  33       8.145  13.944  -0.990  0.00  0.00    +0.000 C 
ATOM    345  O4' U   B  33       8.460  13.411   0.323  0.00  0.00    +0.000 OA
ATOM    346  C3' U   B  33       8.586  15.393  -0.922  0.00  0.00    +0.000 C 
ATOM    347  O3' U   B  33       7.941  16.204  -1.896  0.00  0.00    +0.000 OA
ATOM    348  C2' U   B  33       8.242  15.772   0.514  0.00  0.00    +0.000 C 
ATOM    349  C1' U   B  33       8.568  14.469   1.257  0.00  0.00    +0.000 C 
ATOM    350  P   A   B  34       8.730  17.388  -2.626  0.00  0.00    +0.000 P 
ATOM    351  OP1 A   B  34       7.913  17.827  -3.787  0.00  0.00    +0.000 OA
ATOM    352  O5' A   B  34       8.722  18.549  -1.538  0.00  0.00    +0.000 OA
ATOM    353  C5' A   B  34       7.507  19.123  -1.098  0.00  0.00    +0.000 C 
ATOM    354  C4' A   B  34       7.730  20.020   0.097  0.00  0.00    +0.000 C 
ATOM    355  O4' A   B  34       8.114  19.224   1.247  0.00  0.00    +0.000 OA
ATOM    356  C3' A   B  34       8.851  21.033  -0.043  0.00  0.00    +0.000 C 
ATOM    357  O3' A   B  34       8.457  22.184  -0.780  0.00  0.00    +0.000 OA
ATOM    358  C2' A   B  34       9.206  21.328   1.407  0.00  0.00    +0.000 C 
ATOM    359  C1' A   B  34       9.021  19.951   2.054  0.00  0.00    +0.000 C 
ATOM    360  P   A   B  35       9.558  23.166  -1.411  0.00  0.00    +0.000 P 
ATOM    361  OP1 A   B  35       8.892  24.002  -2.441  0.00  0.00    +0.000 OA
ATOM    362  O5' A   B  35       9.937  24.098  -0.172  0.00  0.00    +0.000 OA
ATOM    363  C5' A   B  35      11.226  24.676  -0.066  0.00  0.00    +0.000 C 
ATOM    364  C4' A   B  35      11.638  24.800   1.380  0.00  0.00    +0.000 C 
ATOM    365  O4' A   B  35      11.511  23.508   2.031  0.00  0.00    +0.000 OA
ATOM    366  C3' A   B  35      13.088  25.193   1.622  0.00  0.00    +0.000 C 
ATOM    367  O3' A   B  35      13.301  26.593   1.519  0.00  0.00    +0.000 OA
ATOM    368  C2' A   B  35      13.353  24.637   3.012  0.00  0.00    +0.000 C 
ATOM    369  C1' A   B  35      12.562  23.324   2.954  0.00  0.00    +0.000 C 
ATOM    370  P   U   B  36      14.518  27.157   0.634  0.00  0.00    +0.000 P 
ATOM    371  OP2 U   B  36      14.477  26.480  -0.685  0.00  0.00    +0.000 OA
ATOM    372  O5' U   B  36      15.810  26.649   1.419  0.00  0.00    +0.000 OA
ATOM    373  C5' U   B  36      16.058  27.056   2.757  0.00  0.00    +0.000 C 
ATOM    374  C4' U   B  36      17.154  26.230   3.390  0.00  0.00    +0.000 C 
ATOM    375  O4' U   B  36      16.755  24.834   3.447  0.00  0.00    +0.000 OA
ATOM    376  C3' U   B  36      18.476  26.199   2.650  0.00  0.00    +0.000 C 
ATOM    377  O3' U   B  36      19.267  27.351   2.883  0.00  0.00    +0.000 OA
ATOM    378  C2' U   B  36      19.115  24.917   3.171  0.00  0.00    +0.000 C 
ATOM    379  C1' U   B  36      17.889  24.002   3.288  0.00  0.00    +0.000 C 
ATOM    380  P   A   B  37      20.255  27.909   1.727  0.00  0.00    +0.000 P 
ATOM    381  OP2 A   B  37      19.512  27.907   0.440  0.00  0.00    +0.000 OA
ATOM    382  O5' A   B  37      21.391  26.792   1.645  0.00  0.00    +0.000 OA
ATOM    383  C5' A   B  37      22.245  26.563   2.759  0.00  0.00    +0.000 C 
ATOM    384  C4' A   B  37      23.120  25.344   2.543  0.00  0.00    +0.000 C 
ATOM    385  O4' A   B  37      22.302  24.167   2.336  0.00  0.00    +0.000 OA
ATOM    386  C3' A   B  37      24.024  25.368   1.322  0.00  0.00    +0.000 C 
ATOM    387  O3' A   B  37      25.195  26.141   1.542  0.00  0.00    +0.000 OA
ATOM    388  C2' A   B  37      24.325  23.889   1.109  0.00  0.00    +0.000 C 
ATOM    389  C1' A   B  37      23.005  23.236   1.537  0.00  0.00    +0.000 C 
ATOM    390  P   U   B  38      25.902  26.957   0.341  0.00  0.00    +0.000 P 
ATOM    391  OP2 U   B  38      24.834  27.507  -0.545  0.00  0.00    +0.000 OA
ATOM    392  O5' U   B  38      26.667  25.814  -0.463  0.00  0.00    +0.000 OA
ATOM    393  C5' U   B  38      27.592  24.962   0.192  0.00  0.00    +0.000 C 
ATOM    394  C4' U   B  38      28.043  23.831  -0.709  0.00  0.00    +0.000 C 
ATOM    395  O4' U   B  38      26.872  23.099  -1.185  0.00  0.00    +0.000 OA
ATOM    396  C3' U   B  38      28.804  24.275  -1.960  0.00  0.00    +0.000 C 
ATOM    397  O3' U   B  38      29.805  23.311  -2.281  0.00  0.00    +0.000 OA
ATOM    398  C2' U   B  38      27.726  24.274  -3.027  0.00  0.00    +0.000 C 
ATOM    399  C1' U   B  38      26.868  23.082  -2.593  0.00  0.00    +0.000 C 
ATOM    400  N1  U   B  38      25.472  23.152  -3.065  0.00  0.00    +0.000 N 
ATOM    401  C2  U   B  38      25.029  22.140  -3.900  0.00  0.00    +0.000 A 
ATOM    402  O2  U   B  38      25.731  21.204  -4.240  0.00  0.00    +0.000 OA
ATOM    403  N3  U   B  38      23.723  22.259  -4.312  0.00  0.00    +0.000 NA
ATOM    404  C4  U   B  38      22.838  23.267  -3.985  0.00  0.00    +0.000 A 
ATOM    405  O4  U   B  38      21.696  23.233  -4.442  0.00  0.00    +0.000 OA
ATOM    406  C5  U   B  38      23.374  24.279  -3.123  0.00  0.00    +0.000 A 
ATOM    407  C6  U   B  38      24.646  24.189  -2.700  0.00  0.00    +0.000 A 
ATOM    408  P   U   B  39      31.317  23.694  -2.427  0.00  0.00    +0.000 P 
ATOM    409  OP1 U   B  39      32.013  22.563  -3.092  0.00  0.00    +0.000 OA
ATOM    410  O5' U   B  39      31.294  24.924  -3.436  0.00  0.00    +0.000 OA
ATOM    411  C5' U   B  39      31.122  24.754  -4.842  0.00  0.00    +0.000 C 
ATOM    412  C4' U   B  39      30.905  26.087  -5.502  0.00  0.00    +0.000 C 
ATOM    413  O4' U   B  39      31.955  26.999  -5.079  0.00  0.00    +0.000 OA
ATOM    414  C3' U   B  39      30.973  26.122  -7.012  0.00  0.00    +0.000 C 
ATOM    415  O3' U   B  39      29.763  25.728  -7.613  0.00  0.00    +0.000 OA
ATOM    416  C2' U   B  39      31.344  27.566  -7.305  0.00  0.00    +0.000 C 
ATOM    417  C1' U   B  39      32.272  27.878  -6.125  0.00  0.00    +0.000 C 
ATOM    418  P   C   B  40      29.688  25.559  -9.195  0.00  0.00    +0.000 P 
ATOM    419  OP2 C   B  40      29.371  26.880  -9.788  0.00  0.00    +0.000 OA
ATOM    420  O5' C   B  40      28.429  24.606  -9.405  0.00  0.00    +0.000 OA
ATOM    421  C5' C   B  40      27.384  24.934 -10.283  0.00  0.00    +0.000 C 
ATOM    422  C4' C   B  40      26.164  24.074 -10.020  0.00  0.00    +0.000 C 
ATOM    423  O4' C   B  40      26.561  22.673 -10.067  0.00  0.00    +0.000 OA
ATOM    424  C3' C   B  40      25.529  24.288  -8.651  0.00  0.00    +0.000 C 
ATOM    425  O3' C   B  40      24.115  24.143  -8.752  0.00  0.00    +0.000 OA
ATOM    426  C2' C   B  40      26.102  23.177  -7.813  0.00  0.00    +0.000 C 
ATOM    427  C1' C   B  40      26.294  22.044  -8.836  0.00  0.00    +0.000 C 
ATOM    428  N1  C   B  40      27.408  21.144  -8.514  0.00  0.00    +0.000 N 
ATOM    429  C2  C   B  40      27.763  20.155  -9.435  0.00  0.00    +0.000 C 
ATOM    430  O2  C   B  40      27.140  20.056 -10.499  0.00  0.00    +0.000 OA
ATOM    431  N3  C   B  40      28.793  19.322  -9.145  0.00  0.00    +0.000 NA
ATOM    432  C4  C   B  40      29.454  19.453  -7.993  0.00  0.00    +0.000 C 
ATOM    433  C5  C   B  40      29.120  20.445  -7.040  0.00  0.00    +0.000 C 
ATOM    434  C6  C   B  40      28.096  21.262  -7.340  0.00  0.00    +0.000 C 
ATOM    435  P   U   B  41      23.251  25.475  -8.790  0.00  0.00    +0.000 P 
ATOM    436  OP1 U   B  41      24.014  26.572  -9.439  0.00  0.00    +0.000 OA
ATOM    437  O5' U   B  41      22.084  25.058  -9.779  0.00  0.00    +0.000 OA
ATOM    438  C5' U   B  41      20.776  24.757  -9.342  0.00  0.00    +0.000 C 
ATOM    439  C4' U   B  41      20.109  23.851 -10.350  0.00  0.00    +0.000 C 
ATOM    440  O4' U   B  41      20.510  24.249 -11.674  0.00  0.00    +0.000 OA
ATOM    441  C3' U   B  41      20.480  22.387 -10.242  0.00  0.00    +0.000 C 
ATOM    442  O3' U   B  41      19.556  21.722  -9.362  0.00  0.00    +0.000 OA
ATOM    443  C2' U   B  41      20.391  21.870 -11.674  0.00  0.00    +0.000 C 
ATOM    444  C1' U   B  41      20.577  23.139 -12.527  0.00  0.00    +0.000 C 
ATOM    445  P   U   B  42      20.038  20.775  -8.223  0.00  0.00    +0.000 P 
ATOM    446  OP2 U   B  42      21.285  21.341  -7.641  0.00  0.00    +0.000 OA
ATOM    447  O5' U   B  42      20.414  19.425  -8.989  0.00  0.00    +0.000 OA
ATOM    448  C5' U   B  42      19.425  18.665  -9.678  0.00  0.00    +0.000 C 
ATOM    449  C4' U   B  42      19.997  17.352 -10.157  0.00  0.00    +0.000 C 
ATOM    450  O4' U   B  42      21.040  17.601 -11.130  0.00  0.00    +0.000 OA
ATOM    451  C3' U   B  42      20.677  16.518  -9.086  0.00  0.00    +0.000 C 
ATOM    452  O3' U   B  42      19.751  15.734  -8.343  0.00  0.00    +0.000 OA
ATOM    453  C2' U   B  42      21.665  15.681  -9.884  0.00  0.00    +0.000 C 
ATOM    454  C1' U   B  42      22.091  16.676 -10.965  0.00  0.00    +0.000 C 
ATOM    455  N1  U   B  42      23.310  17.425 -10.594  0.00  0.00    +0.000 N 
ATOM    456  C2  U   B  42      24.520  16.758 -10.634  0.00  0.00    +0.000 A 
ATOM    457  O2  U   B  42      24.626  15.583 -10.952  0.00  0.00    +0.000 OA
ATOM    458  N3  U   B  42      25.614  17.513 -10.282  0.00  0.00    +0.000 NA
ATOM    459  C4  U   B  42      25.618  18.843  -9.905  0.00  0.00    +0.000 A 
ATOM    460  O4  U   B  42      26.686  19.384  -9.620  0.00  0.00    +0.000 OA
ATOM    461  C5  U   B  42      24.332  19.465  -9.891  0.00  0.00    +0.000 A 
ATOM    462  C6  U   B  42      23.249  18.753 -10.230  0.00  0.00    +0.000 A 
ATOM    463  P   A   B  43      19.817  15.724  -6.746  0.00  0.00    +0.000 P 
ATOM    464  OP1 A   B  43      18.738  14.818  -6.279  0.00  0.00    +0.000 OA
ATOM    465  O5' A   B  43      21.214  15.027  -6.438  0.00  0.00    +0.000 OA
ATOM    466  C5' A   B  43      21.416  13.643  -6.693  0.00  0.00    +0.000 C 
ATOM    467  C4' A   B  43      22.819  13.219  -6.332  0.00  0.00    +0.000 C 
ATOM    468  O4' A   B  43      23.770  13.853  -7.222  0.00  0.00    +0.000 OA
ATOM    469  C3' A   B  43      23.289  13.622  -4.941  0.00  0.00    +0.000 C 
ATOM    470  O3' A   B  43      22.829  12.738  -3.926  0.00  0.00    +0.000 OA
ATOM    471  C2' A   B  43      24.803  13.618  -5.094  0.00  0.00    +0.000 C 
ATOM    472  C1' A   B  43      24.960  14.150  -6.522  0.00  0.00    +0.000 C 
ATOM    473  P   C   B  44      22.387  13.342  -2.495  0.00  0.00    +0.000 P 
ATOM    474  OP2 C   B  44      21.492  14.503  -2.726  0.00  0.00    +0.000 OA
ATOM    475  O5' C   B  44      23.747  13.881  -1.861  0.00  0.00    +0.000 OA
ATOM    476  C5' C   B  44      24.816  12.999  -1.554  0.00  0.00    +0.000 C 
ATOM    477  C4' C   B  44      26.061  13.762  -1.154  0.00  0.00    +0.000 C 
ATOM    478  O4' C   B  44      26.511  14.586  -2.262  0.00  0.00    +0.000 OA
ATOM    479  C3' C   B  44      25.891  14.738  -0.007  0.00  0.00    +0.000 C 
ATOM    480  O3' C   B  44      25.973  14.089   1.258  0.00  0.00    +0.000 OA
ATOM    481  C2' C   B  44      27.029  15.727  -0.235  0.00  0.00    +0.000 C 
ATOM    482  C1' C   B  44      27.097  15.776  -1.770  0.00  0.00    +0.000 C 
ATOM    483  N1  C   B  44      26.375  16.931  -2.348  0.00  0.00    +0.000 N 
ATOM    484  C2  C   B  44      27.037  18.161  -2.423  0.00  0.00    +0.000 A 
ATOM    485  O2  C   B  44      28.203  18.256  -2.007  0.00  0.00    +0.000 OA
ATOM    486  N3  C   B  44      26.387  19.229  -2.961  0.00  0.00    +0.000 NA
ATOM    487  C4  C   B  44      25.134  19.098  -3.405  0.00  0.00    +0.000 A 
ATOM    488  N4  C   B  44      24.538  20.177  -3.921  0.00  0.00    +0.000 N 
ATOM    489  C5  C   B  44      24.443  17.854  -3.336  0.00  0.00    +0.000 A 
ATOM    490  C6  C   B  44      25.095  16.809  -2.808  0.00  0.00    +0.000 A 
ATOM    491  P   U   B  45      24.807  14.252   2.339  0.00  0.00    +0.000 P 
ATOM    492  OP2 U   B  45      23.507  14.137   1.630  0.00  0.00    +0.000 OA
ATOM    493  O5' U   B  45      24.958  15.754   2.864  0.00  0.00    +0.000 OA
ATOM    494  C5' U   B  45      26.180  16.219   3.427  0.00  0.00    +0.000 C 
ATOM    495  C4' U   B  45      26.001  17.566   4.079  0.00  0.00    +0.000 C 
ATOM    496  O4' U   B  45      25.573  18.536   3.089  0.00  0.00    +0.000 OA
ATOM    497  C3' U   B  45      24.926  17.628   5.151  0.00  0.00    +0.000 C 
ATOM    498  O3' U   B  45      25.390  17.159   6.412  0.00  0.00    +0.000 OA
ATOM    499  C2' U   B  45      24.546  19.102   5.159  0.00  0.00    +0.000 C 
ATOM    500  C1' U   B  45      24.657  19.446   3.666  0.00  0.00    +0.000 C 
ATOM    501  P   U   B  46      24.451  16.300   7.367  0.00  0.00    +0.000 P 
ATOM    502  OP2 U   B  46      23.693  15.343   6.519  0.00  0.00    +0.000 OA
ATOM    503  O5' U   B  46      23.428  17.380   7.943  0.00  0.00    +0.000 OA
ATOM    504  C5' U   B  46      23.882  18.467   8.741  0.00  0.00    +0.000 C 
ATOM    505  C4' U   B  46      22.833  19.549   8.850  0.00  0.00    +0.000 C 
ATOM    506  O4' U   B  46      22.532  20.072   7.527  0.00  0.00    +0.000 OA
ATOM    507  C3' U   B  46      21.483  19.113   9.388  0.00  0.00    +0.000 C 
ATOM    508  O3' U   B  46      21.462  19.029  10.806  0.00  0.00    +0.000 OA
ATOM    509  C2' U   B  46      20.546  20.178   8.834  0.00  0.00    +0.000 C 
ATOM    510  C1' U   B  46      21.162  20.422   7.449  0.00  0.00    +0.000 C 
ATOM    511  P   U   B  47      20.445  18.054  11.540  0.00  0.00    +0.000 P 
ATOM    512  OP2 U   B  47      20.371  16.794  10.753  0.00  0.00    +0.000 OA
ATOM    513  O5' U   B  47      19.046  18.813  11.406  0.00  0.00    +0.000 OA
ATOM    514  C5' U   B  47      18.833  20.069  12.037  0.00  0.00    +0.000 C 
ATOM    515  C4' U   B  47      17.504  20.678  11.641  0.00  0.00    +0.000 C 
ATOM    516  O4' U   B  47      17.497  20.970  10.216  0.00  0.00    +0.000 OA
ATOM    517  C3' U   B  47      16.286  19.794  11.837  0.00  0.00    +0.000 C 
ATOM    518  O3' U   B  47      15.833  19.774  13.184  0.00  0.00    +0.000 OA
ATOM    519  C2' U   B  47      15.279  20.405  10.871  0.00  0.00    +0.000 C 
ATOM    520  C1' U   B  47      16.189  20.795   9.697  0.00  0.00    +0.000 C 
ATOM    521  P   A   B  48      15.126  18.472  13.775  0.00  0.00    +0.000 P 
ATOM    522  OP2 A   B  48      15.845  17.280  13.260  0.00  0.00    +0.000 OA
ATOM    523  O5' A   B  48      13.674  18.511  13.108  0.00  0.00    +0.000 OA
ATOM    524  C5' A   B  48      12.763  19.562  13.406  0.00  0.00    +0.000 C 
ATOM    525  C4' A   B  48      11.583  19.556  12.458  0.00  0.00    +0.000 C 
ATOM    526  O4' A   B  48      12.042  19.793  11.099  0.00  0.00    +0.000 OA
ATOM    527  C3' A   B  48      10.817  18.246  12.361  0.00  0.00    +0.000 C 
ATOM    528  O3' A   B  48       9.894  18.064  13.427  0.00  0.00    +0.000 OA
ATOM    529  C2' A   B  48      10.146  18.363  11.000  0.00  0.00    +0.000 C 
ATOM    530  C1' A   B  48      11.240  19.066  10.189  0.00  0.00    +0.000 C 
ATOM    531  P   U   B  49       9.553  16.599  13.955  0.00  0.00    +0.000 P 
ATOM    532  OP2 U   B  49      10.817  15.817  14.000  0.00  0.00    +0.000 OA
ATOM    533  O5' U   B  49       8.631  15.998  12.796  0.00  0.00    +0.000 OA
ATOM    534  C5' U   B  49       7.365  16.573  12.498  0.00  0.00    +0.000 C 
ATOM    535  C4' U   B  49       6.786  16.012  11.218  0.00  0.00    +0.000 C 
ATOM    536  O4' U   B  49       7.651  16.344  10.098  0.00  0.00    +0.000 OA
ATOM    537  C3' U   B  49       6.667  14.499  11.153  0.00  0.00    +0.000 C 
ATOM    538  O3' U   B  49       5.529  13.999  11.839  0.00  0.00    +0.000 OA
ATOM    539  C2' U   B  49       6.626  14.247   9.652  0.00  0.00    +0.000 C 
ATOM    540  C1' U   B  49       7.625  15.296   9.148  0.00  0.00    +0.000 C 
ATOM    541  P   U   B  50       5.590  12.562  12.539  0.00  0.00    +0.000 P 
ATOM    542  OP2 U   B  50       6.901  12.429  13.228  0.00  0.00    +0.000 OA
ATOM    543  O5' U   B  50       5.576  11.554  11.299  0.00  0.00    +0.000 OA
ATOM    544  C5' U   B  50       4.450  11.478  10.440  0.00  0.00    +0.000 C 
ATOM    545  C4' U   B  50       4.743  10.658   9.205  0.00  0.00    +0.000 C 
ATOM    546  O4' U   B  50       5.818  11.276   8.445  0.00  0.00    +0.000 OA
ATOM    547  C3' U   B  50       5.235   9.244   9.443  0.00  0.00    +0.000 C 
ATOM    548  O3' U   B  50       4.195   8.335   9.755  0.00  0.00    +0.000 OA
ATOM    549  C2' U   B  50       5.933   8.927   8.128  0.00  0.00    +0.000 C 
ATOM    550  C1' U   B  50       6.581  10.274   7.803  0.00  0.00    +0.000 C 
ATOM    551  P   U   B  51       4.510   7.044  10.649  0.00  0.00    +0.000 P 
ATOM    552  OP1 U   B  51       3.213   6.397  10.971  0.00  0.00    +0.000 OA
ATOM    553  O5' U   B  51       5.305   6.095   9.643  0.00  0.00    +0.000 OA
ATOM    554  C5' U   B  51       4.692   5.601   8.465  0.00  0.00    +0.000 C 
ATOM    555  C4' U   B  51       5.693   4.942   7.547  0.00  0.00    +0.000 C 
ATOM    556  O4' U   B  51       6.716   5.903   7.162  0.00  0.00    +0.000 OA
ATOM    557  C3' U   B  51       6.482   3.788   8.139  0.00  0.00    +0.000 C 
ATOM    558  O3' U   B  51       5.756   2.571   8.144  0.00  0.00    +0.000 OA
ATOM    559  C2' U   B  51       7.712   3.747   7.243  0.00  0.00    +0.000 C 
ATOM    560  C1' U   B  51       7.952   5.239   6.994  0.00  0.00    +0.000 C 
ATOM    561  P   U   B  52       6.052   1.476   9.266  0.00  0.00    +0.000 P 
ATOM    562  OP1 U   B  52       4.976   0.460   9.181  0.00  0.00    +0.000 OA
ATOM    563  O5' U   B  52       7.412   0.809   8.767  0.00  0.00    +0.000 OA
ATOM    564  C5' U   B  52       7.478   0.109   7.537  0.00  0.00    +0.000 C 
ATOM    565  C4' U   B  52       8.904  -0.201   7.150  0.00  0.00    +0.000 C 
ATOM    566  O4' U   B  52       9.649   1.039   6.993  0.00  0.00    +0.000 OA
ATOM    567  C3' U   B  52       9.710  -0.990   8.167  0.00  0.00    +0.000 C 
ATOM    568  O3' U   B  52       9.451  -2.387   8.109  0.00  0.00    +0.000 OA
ATOM    569  C2' U   B  52      11.142  -0.629   7.795  0.00  0.00    +0.000 C 
ATOM    570  C1' U   B  52      10.988   0.845   7.402  0.00  0.00    +0.000 C 
ATOM    571  P   A   B  53       9.568  -3.276   9.428  0.00  0.00    +0.000 P 
ATOM    572  OP1 A   B  53       9.006  -4.610   9.109  0.00  0.00    +0.000 OA
ATOM    573  O5' A   B  53      11.142  -3.433   9.635  0.00  0.00    +0.000 OA
ATOM    574  C5' A   B  53      11.932  -4.166   8.712  0.00  0.00    +0.000 C 
ATOM    575  C4' A   B  53      13.407  -3.999   9.000  0.00  0.00    +0.000 C 
ATOM    576  O4' A   B  53      13.784  -2.604   8.846  0.00  0.00    +0.000 OA
ATOM    577  C3' A   B  53      13.851  -4.351  10.411  0.00  0.00    +0.000 C 
ATOM    578  O3' A   B  53      14.030  -5.749  10.605  0.00  0.00    +0.000 OA
ATOM    579  C2' A   B  53      15.140  -3.553  10.551  0.00  0.00    +0.000 C 
ATOM    580  C1' A   B  53      14.786  -2.272   9.786  0.00  0.00    +0.000 C 
ATOM    581  P   A   B  54      13.730  -6.399  12.039  0.00  0.00    +0.000 P 
ATOM    582  OP1 A   B  54      13.784  -7.870  11.865  0.00  0.00    +0.000 OA
ATOM    583  O5' A   B  54      14.979  -5.954  12.928  0.00  0.00    +0.000 OA
ATOM    584  C5' A   B  54      16.289  -6.431  12.639  0.00  0.00    +0.000 C 
ATOM    585  C4' A   B  54      17.340  -5.642  13.386  0.00  0.00    +0.000 C 
ATOM    586  O4' A   B  54      17.263  -4.241  13.010  0.00  0.00    +0.000 OA
ATOM    587  C3' A   B  54      17.211  -5.624  14.900  0.00  0.00    +0.000 C 
ATOM    588  O3' A   B  54      17.720  -6.798  15.521  0.00  0.00    +0.000 OA
ATOM    589  C2' A   B  54      17.982  -4.366  15.271  0.00  0.00    +0.000 C 
ATOM    590  C1' A   B  54      17.587  -3.430  14.123  0.00  0.00    +0.000 C 
ATOM    591  P   A   B  55      17.103  -7.284  16.919  0.00  0.00    +0.000 P 
ATOM    592  OP2 A   B  55      15.622  -7.128  16.864  0.00  0.00    +0.000 OA
ATOM    593  O5' A   B  55      17.672  -6.230  17.979  0.00  0.00    +0.000 OA
ATOM    594  C5' A   B  55      19.068  -6.147  18.242  0.00  0.00    +0.000 C 
ATOM    595  C4' A   B  55      19.407  -4.912  19.049  0.00  0.00    +0.000 C 
ATOM    596  O4' A   B  55      18.978  -3.723  18.334  0.00  0.00    +0.000 OA
ATOM    597  C3' A   B  55      18.727  -4.789  20.402  0.00  0.00    +0.000 C 
ATOM    598  O3' A   B  55      19.351  -5.572  21.411  0.00  0.00    +0.000 OA
ATOM    599  C2' A   B  55      18.811  -3.293  20.666  0.00  0.00    +0.000 C 
ATOM    600  C1' A   B  55      18.570  -2.734  19.259  0.00  0.00    +0.000 C 
ATOM    601  P   A   B  56      18.489  -6.083  22.663  0.00  0.00    +0.000 P 
ATOM    602  OP2 A   B  56      17.151  -6.520  22.173  0.00  0.00    +0.000 OA
ATOM    603  O5' A   B  56      18.285  -4.770  23.552  0.00  0.00    +0.000 OA
ATOM    604  C5' A   B  56      19.403  -4.103  24.129  0.00  0.00    +0.000 C 
ATOM    605  C4' A   B  56      19.005  -2.774  24.729  0.00  0.00    +0.000 C 
ATOM    606  O4' A   B  56      18.453  -1.915  23.697  0.00  0.00    +0.000 OA
ATOM    607  C3' A   B  56      17.916  -2.822  25.786  0.00  0.00    +0.000 C 
ATOM    608  O3' A   B  56      18.403  -3.207  27.064  0.00  0.00    +0.000 OA
ATOM    609  C2' A   B  56      17.373  -1.401  25.751  0.00  0.00    +0.000 C 
ATOM    610  C1' A   B  56      17.441  -1.099  24.251  0.00  0.00    +0.000 C 
ATOM    611  P   A   B  57      17.421  -3.922  28.110  0.00  0.00    +0.000 P 
ATOM    612  OP2 A   B  57      16.519  -4.845  27.367  0.00  0.00    +0.000 OA
ATOM    613  O5' A   B  57      16.542  -2.715  28.675  0.00  0.00    +0.000 OA
ATOM    614  C5' A   B  57      17.151  -1.642  29.382  0.00  0.00    +0.000 C 
ATOM    615  C4' A   B  57      16.174  -0.518  29.623  0.00  0.00    +0.000 C 
ATOM    616  O4' A   B  57      15.728   0.022  28.353  0.00  0.00    +0.000 OA
ATOM    617  C3' A   B  57      14.887  -0.905  30.330  0.00  0.00    +0.000 C 
ATOM    618  O3' A   B  57      15.044  -1.006  31.736  0.00  0.00    +0.000 OA
ATOM    619  C2' A   B  57      13.939   0.209  29.906  0.00  0.00    +0.000 C 
ATOM    620  C1' A   B  57      14.376   0.424  28.454  0.00  0.00    +0.000 C 
ATOM    621  P   C   B  58      14.116  -2.016  32.568  0.00  0.00    +0.000 P 
ATOM    622  OP2 C   B  58      13.848  -3.222  31.737  0.00  0.00    +0.000 OA
ATOM    623  O5' C   B  58      12.751  -1.202  32.717  0.00  0.00    +0.000 OA
ATOM    624  C5' C   B  58      12.709   0.009  33.452  0.00  0.00    +0.000 C 
ATOM    625  C4' C   B  58      11.402   0.736  33.254  0.00  0.00    +0.000 C 
ATOM    626  O4' C   B  58      11.249   1.102  31.860  0.00  0.00    +0.000 OA
ATOM    627  C3' C   B  58      10.146  -0.055  33.561  0.00  0.00    +0.000 C 
ATOM    628  O3' C   B  58       9.861  -0.132  34.946  0.00  0.00    +0.000 OA
ATOM    629  C2' C   B  58       9.091   0.711  32.772  0.00  0.00    +0.000 C 
ATOM    630  C1' C   B  58       9.878   1.072  31.509  0.00  0.00    +0.000 C 
ATOM    631  P   A   B  59       9.140  -1.435  35.526  0.00  0.00    +0.000 P 
ATOM    632  OP2 A   B  59       9.774  -2.632  34.917  0.00  0.00    +0.000 OA
ATOM    633  O5' A   B  59       7.658  -1.310  34.946  0.00  0.00    +0.000 OA
ATOM    634  C5' A   B  59       6.800  -0.274  35.377  0.00  0.00    +0.000 C 
ATOM    635  C4' A   B  59       5.625  -0.094  34.446  0.00  0.00    +0.000 C 
ATOM    636  O4' A   B  59       6.098   0.086  33.088  0.00  0.00    +0.000 OA
ATOM    637  C3' A   B  59       4.663  -1.265  34.338  0.00  0.00    +0.000 C 
ATOM    638  O3' A   B  59       3.747  -1.327  35.419  0.00  0.00    +0.000 OA
ATOM    639  C2' A   B  59       3.988  -1.002  32.999  0.00  0.00    +0.000 C 
ATOM    640  C1' A   B  59       5.160  -0.453  32.178  0.00  0.00    +0.000 C 
ATOM    641  P   G   B  60       3.139  -2.741  35.858  0.00  0.00    +0.000 P 
ATOM    642  OP2 G   B  60       4.222  -3.760  35.824  0.00  0.00    +0.000 OA
ATOM    643  O5' G   B  60       2.102  -3.076  34.695  0.00  0.00    +0.000 OA
ATOM    644  C5' G   B  60       0.988  -2.235  34.451  0.00  0.00    +0.000 C 
ATOM    645  C4' G   B  60       0.316  -2.573  33.139  0.00  0.00    +0.000 C 
ATOM    646  O4' G   B  60       1.288  -2.494  32.069  0.00  0.00    +0.000 OA
ATOM    647  C3' G   B  60      -0.249  -3.972  33.018  0.00  0.00    +0.000 C 
ATOM    648  O3' G   B  60      -1.543  -4.074  33.600  0.00  0.00    +0.000 OA
ATOM    649  C2' G   B  60      -0.276  -4.194  31.512  0.00  0.00    +0.000 C 
ATOM    650  C1' G   B  60       0.957  -3.407  31.052  0.00  0.00    +0.000 C 
ATOM    651  P   A   B  61      -1.838  -5.037  34.813  0.00  0.00    +0.000 P 
ATOM    652  OP2 A   B  61      -2.890  -5.996  34.385  0.00  0.00    +0.000 OA
ATOM    653  O5' A   B  61      -2.486  -4.056  35.887  0.00  0.00    +0.000 OA
ATOM    654  C5' A   B  61      -1.667  -3.304  36.764  0.00  0.00    +0.000 C 
ATOM    655  C4' A   B  61      -2.205  -1.909  36.952  0.00  0.00    +0.000 C 
ATOM    656  O4' A   B  61      -2.028  -1.149  35.728  0.00  0.00    +0.000 OA
ATOM    657  C3' A   B  61      -3.694  -1.803  37.236  0.00  0.00    +0.000 C 
ATOM    658  O3' A   B  61      -4.014  -2.050  38.597  0.00  0.00    +0.000 OA
ATOM    659  C2' A   B  61      -4.015  -0.385  36.788  0.00  0.00    +0.000 C 
ATOM    660  C1' A   B  61      -3.106  -0.248  35.561  0.00  0.00    +0.000 C 
ATOM    661  P   C   B  62      -5.376  -2.755  38.990  0.00  0.00    +0.000 P 
ATOM    662  OP2 C   B  62      -5.617  -3.849  38.014  0.00  0.00    +0.000 OA
ATOM    663  O5' C   B  62      -6.470  -1.622  38.753  0.00  0.00    +0.000 OA
ATOM    664  C5' C   B  62      -6.421  -0.394  39.466  0.00  0.00    +0.000 C 
ATOM    665  C4' C   B  62      -7.369   0.619  38.878  0.00  0.00    +0.000 C 
ATOM    666  O4' C   B  62      -6.992   0.902  37.507  0.00  0.00    +0.000 OA
ATOM    667  C3' C   B  62      -8.814   0.179  38.778  0.00  0.00    +0.000 C 
ATOM    668  O3' C   B  62      -9.511   0.324  40.008  0.00  0.00    +0.000 OA
ATOM    669  C2' C   B  62      -9.356   1.072  37.670  0.00  0.00    +0.000 C 
ATOM    670  C1' C   B  62      -8.150   1.136  36.727  0.00  0.00    +0.000 C 
ATOM    671  P   U   B  63     -10.644  -0.711  40.401  0.00  0.00    +0.000 P 
ATOM    672  OP2 U   B  63     -10.184  -2.074  40.038  0.00  0.00    +0.000 OA
ATOM    673  O5' U   B  63     -11.838  -0.313  39.426  0.00  0.00    +0.000 OA
ATOM    674  C5' U   B  63     -12.373   0.994  39.418  0.00  0.00    +0.000 C 
ATOM    675  C4' U   B  63     -13.242   1.229  38.207  0.00  0.00    +0.000 C 
ATOM    676  O4' U   B  63     -12.445   1.116  37.003  0.00  0.00    +0.000 OA
ATOM    677  C3' U   B  63     -14.359   0.229  38.003  0.00  0.00    +0.000 C 
ATOM    678  O3' U   B  63     -15.488   0.516  38.812  0.00  0.00    +0.000 OA
ATOM    679  C2' U   B  63     -14.633   0.340  36.509  0.00  0.00    +0.000 C 
ATOM    680  C1' U   B  63     -13.220   0.559  35.962  0.00  0.00    +0.000 C 
ATOM    681  P   A   B  64     -16.696  -0.494  38.871  0.00  0.00    +0.000 P 
ATOM    682  OP2 A   B  64     -16.205  -1.871  38.607  0.00  0.00    +0.000 OA
ATOM    683  O5' A   B  64     -17.567  -0.028  37.631  0.00  0.00    +0.000 OA
ATOM    684  C5' A   B  64     -18.661  -0.807  37.189  0.00  0.00    +0.000 C 
ATOM    685  C4' A   B  64     -18.796  -0.753  35.690  0.00  0.00    +0.000 C 
ATOM    686  O4' A   B  64     -17.484  -0.743  35.077  0.00  0.00    +0.000 OA
ATOM    687  C3' A   B  64     -19.483  -1.954  35.066  0.00  0.00    +0.000 C 
ATOM    688  O3' A   B  64     -20.899  -1.826  35.122  0.00  0.00    +0.000 OA
ATOM    689  C2' A   B  64     -18.933  -1.970  33.651  0.00  0.00    +0.000 C 
ATOM    690  C1' A   B  64     -17.496  -1.491  33.885  0.00  0.00    +0.000 C 
ATOM    691  P   C   B  65     -21.738  -2.831  36.011  0.00  0.00    +0.000 P 
ATOM    692  OP1 C   B  65     -23.024  -2.184  36.365  0.00  0.00    +0.000 OA
ATOM    693  O5' C   B  65     -22.033  -4.002  34.973  0.00  0.00    +0.000 OA
ATOM    694  C5' C   B  65     -22.591  -3.722  33.705  0.00  0.00    +0.000 C 
ATOM    695  C4' C   B  65     -22.267  -4.811  32.714  0.00  0.00    +0.000 C 
ATOM    696  O4' C   B  65     -20.858  -4.765  32.377  0.00  0.00    +0.000 OA
ATOM    697  C3' C   B  65     -22.481  -6.227  33.211  0.00  0.00    +0.000 C 
ATOM    698  O3' C   B  65     -23.839  -6.626  33.125  0.00  0.00    +0.000 OA
ATOM    699  C2' C   B  65     -21.550  -7.039  32.322  0.00  0.00    +0.000 C 
ATOM    700  C1' C   B  65     -20.374  -6.072  32.156  0.00  0.00    +0.000 C 
ATOM    701  P   A   B  66     -24.611  -7.176  34.407  0.00  0.00    +0.000 P 
ATOM    702  OP1 A   B  66     -26.046  -6.831  34.289  0.00  0.00    +0.000 OA
ATOM    703  O5' A   B  66     -24.463  -8.744  34.227  0.00  0.00    +0.000 OA
ATOM    704  C5' A   B  66     -24.892  -9.389  33.038  0.00  0.00    +0.000 C 
ATOM    705  C4' A   B  66     -24.511 -10.844  33.042  0.00  0.00    +0.000 C 
ATOM    706  O4' A   B  66     -23.060 -10.934  32.979  0.00  0.00    +0.000 OA
ATOM    707  C3' A   B  66     -24.937 -11.607  34.291  0.00  0.00    +0.000 C 
ATOM    708  C2' A   B  66     -23.686 -11.583  35.156  0.00  0.00    +0.000 C 
ATOM    709  C1' A   B  66     -22.574 -11.612  34.117  0.00  0.00    +0.000 C 
ATOM    710  N9  A   B  66     -21.364 -10.915  34.568  0.00  0.00    +0.000 N 
ATOM    711  C8  A   B  66     -21.294  -9.684  35.168  0.00  0.00    +0.000 A 
ATOM    712  N7  A   B  66     -20.072  -9.314  35.471  0.00  0.00    +0.000 NA
ATOM    713  C5  A   B  66     -19.291 -10.377  35.042  0.00  0.00    +0.000 A 
ATOM    714  C6  A   B  66     -17.908 -10.606  35.079  0.00  0.00    +0.000 C 
ATOM    715  N6  A   B  66     -17.029  -9.734  35.590  0.00  0.00    +0.000 NA
ATOM    716  N1  A   B  66     -17.445 -11.768  34.565  0.00  0.00    +0.000 N 
ATOM    717  C2  A   B  66     -18.322 -12.635  34.055  0.00  0.00    +0.000 C 
ATOM    718  N3  A   B  66     -19.650 -12.534  33.967  0.00  0.00    +0.000 N 
ATOM    719  C4  A   B  66     -20.073 -11.369  34.485  0.00  0.00    +0.000 A 
ATOM    720  H   C   B   1     -17.661  -8.337  35.986  0.00  0.00    +0.000 HD
ATOM    721  H   A   B   3     -16.559 -11.320  33.763  0.00  0.00    +0.000 HD
ATOM    722  H   A   B   3     -16.490 -16.201  32.487  0.00  0.00    +0.000 HD
ATOM    723  H   C   B  44      23.575  20.313  -4.073  0.00  0.00    +0.000 HD
ATOM    724  H   A   B  66     -16.588  -9.287  34.786  0.00  0.00    +0.000 HD
ATOM    725  H   A   B  66     -20.239 -13.219  33.576  0.00  0.00    +0.000 HD
ENDROOT
BRANCH 650 726
ATOM    726  N9  G   B  60       2.120  -4.263  30.774  0.00  0.00    +0.000 N 
ATOM    727  C8  G   B  60       3.165  -4.560  31.606  0.00  0.00    +0.000 A 
ATOM    728  N7  G   B  60       4.051  -5.346  31.052  0.00  0.00    +0.000 NA
ATOM    729  C5  G   B  60       3.555  -5.577  29.775  0.00  0.00    +0.000 A 
ATOM    730  C6  G   B  60       4.076  -6.350  28.707  0.00  0.00    +0.000 A 
ATOM    731  O6  G   B  60       5.126  -7.016  28.674  0.00  0.00    +0.000 OA
ATOM    732  N1  G   B  60       3.251  -6.310  27.591  0.00  0.00    +0.000 NA
ATOM    733  C2  G   B  60       2.072  -5.615  27.506  0.00  0.00    +0.000 A 
ATOM    734  N2  G   B  60       1.408  -5.694  26.342  0.00  0.00    +0.000 N 
ATOM    735  N3  G   B  60       1.574  -4.888  28.490  0.00  0.00    +0.000 N 
ATOM    736  C4  G   B  60       2.367  -4.915  29.589  0.00  0.00    +0.000 A 
ATOM    737  H   G   B  60       1.772  -6.234  25.603  0.00  0.00    +0.000 HD
ATOM    738  H   G   B  60       0.557  -5.212  26.227  0.00  0.00    +0.000 HD
ATOM    739  H   G   B  60       0.729  -4.387  28.432  0.00  0.00    +0.000 HD
ENDBRANCH 650 726
BRANCH 199 740
ATOM    740  N9  G   B  18       9.459 -17.479  34.512  0.00  0.00    +0.000 N 
ATOM    741  C8  G   B  18       8.881 -16.544  35.334  0.00  0.00    +0.000 A 
ATOM    742  N7  G   B  18       7.622 -16.333  35.057  0.00  0.00    +0.000 NA
ATOM    743  C5  G   B  18       7.353 -17.182  33.989  0.00  0.00    +0.000 A 
ATOM    744  C6  G   B  18       6.156 -17.399  33.262  0.00  0.00    +0.000 A 
ATOM    745  O6  G   B  18       5.049 -16.863  33.418  0.00  0.00    +0.000 OA
ATOM    746  N1  G   B  18       6.324 -18.347  32.258  0.00  0.00    +0.000 NA
ATOM    747  C2  G   B  18       7.499 -19.004  31.985  0.00  0.00    +0.000 A 
ATOM    748  N2  G   B  18       7.476 -19.891  30.977  0.00  0.00    +0.000 N 
ATOM    749  N3  G   B  18       8.624 -18.813  32.657  0.00  0.00    +0.000 N 
ATOM    750  C4  G   B  18       8.478 -17.894  33.642  0.00  0.00    +0.000 A 
ATOM    751  H   G   B  18       6.645 -20.040  30.471  0.00  0.00    +0.000 HD
ATOM    752  H   G   B  18       8.291 -20.392  30.744  0.00  0.00    +0.000 HD
ATOM    753  H   G   B  18       9.467 -19.283  32.464  0.00  0.00    +0.000 HD
ENDBRANCH 199 740
BRANCH 109 754
ATOM    754  N9  A   B   9      -4.202   1.225  28.333  0.00  0.00    +0.000 N 
ATOM    755  C8  A   B   9      -5.518   1.214  27.961  0.00  0.00    +0.000 A 
ATOM    756  N7  A   B   9      -6.239   2.136  28.553  0.00  0.00    +0.000 NA
ATOM    757  C5  A   B   9      -5.331   2.794  29.369  0.00  0.00    +0.000 A 
ATOM    758  C6  A   B   9      -5.467   3.876  30.257  0.00  0.00    +0.000 A 
ATOM    759  N6  A   B   9      -6.622   4.507  30.486  0.00  0.00    +0.000 N 
ATOM    760  N1  A   B   9      -4.365   4.291  30.913  0.00  0.00    +0.000 NA
ATOM    761  C2  A   B   9      -3.206   3.658  30.686  0.00  0.00    +0.000 A 
ATOM    762  N3  A   B   9      -2.956   2.629  29.875  0.00  0.00    +0.000 NA
ATOM    763  C4  A   B   9      -4.073   2.240  29.241  0.00  0.00    +0.000 A 
ATOM    764  H   A   B   9      -7.440   4.222  30.018  0.00  0.00    +0.000 HD
ATOM    765  H   A   B   9      -6.655   5.258  31.122  0.00  0.00    +0.000 HD
ENDBRANCH 109 754
BRANCH 159 766
ATOM    766  N9  A   B  14       4.442 -21.744  32.827  0.00  0.00    +0.000 N 
ATOM    767  C8  A   B  14       3.138 -21.599  32.432  0.00  0.00    +0.000 A 
ATOM    768  N7  A   B  14       2.525 -20.593  33.015  0.00  0.00    +0.000 NA
ATOM    769  C5  A   B  14       3.494 -20.046  33.850  0.00  0.00    +0.000 A 
ATOM    770  C6  A   B  14       3.480 -18.958  34.739  0.00  0.00    +0.000 A 
ATOM    771  N6  A   B  14       2.404 -18.184  34.954  0.00  0.00    +0.000 N 
ATOM    772  N1  A   B  14       4.615 -18.680  35.415  0.00  0.00    +0.000 NA
ATOM    773  C2  A   B  14       5.689 -19.449  35.211  0.00  0.00    +0.000 A 
ATOM    774  N3  A   B  14       5.825 -20.498  34.402  0.00  0.00    +0.000 NA
ATOM    775  C4  A   B  14       4.676 -20.745  33.743  0.00  0.00    +0.000 A 
ATOM    776  H   A   B  14       1.564 -18.365  34.474  0.00  0.00    +0.000 HD
ATOM    777  H   A   B  14       2.455 -17.436  35.592  0.00  0.00    +0.000 HD
ENDBRANCH 159 766
BRANCH 209 778
ATOM    778  N9  A   B  19       8.969 -17.109  29.433  0.00  0.00    +0.000 N 
ATOM    779  C8  A   B  19       9.131 -16.252  30.492  0.00  0.00    +0.000 A 
ATOM    780  N7  A   B  19       8.029 -15.626  30.837  0.00  0.00    +0.000 NA
ATOM    781  C5  A   B  19       7.077 -16.102  29.944  0.00  0.00    +0.000 A 
ATOM    782  C6  A   B  19       5.709 -15.831  29.782  0.00  0.00    +0.000 A 
ATOM    783  N6  A   B  19       5.028 -14.967  30.550  0.00  0.00    +0.000 N 
ATOM    784  N1  A   B  19       5.051 -16.478  28.795  0.00  0.00    +0.000 NA
ATOM    785  C2  A   B  19       5.729 -17.339  28.024  0.00  0.00    +0.000 A 
ATOM    786  N3  A   B  19       7.018 -17.678  28.079  0.00  0.00    +0.000 NA
ATOM    787  C4  A   B  19       7.644 -17.016  29.075  0.00  0.00    +0.000 A 
ATOM    788  H   A   B  19       4.068 -14.817  30.390  0.00  0.00    +0.000 HD
ATOM    789  H   A   B  19       5.488 -14.483  31.274  0.00  0.00    +0.000 HD
ENDBRANCH 209 778
BRANCH 219 790
ATOM    790  N9  A   B  20       7.400 -15.362  25.327  0.00  0.00    +0.000 N 
ATOM    791  C8  A   B  20       8.209 -14.783  26.271  0.00  0.00    +0.000 A 
ATOM    792  N7  A   B  20       7.557 -14.042  27.140  0.00  0.00    +0.000 NA
ATOM    793  C5  A   B  20       6.232 -14.139  26.738  0.00  0.00    +0.000 A 
ATOM    794  C6  A   B  20       5.044 -13.586  27.246  0.00  0.00    +0.000 A 
ATOM    795  N6  A   B  20       4.999 -12.781  28.319  0.00  0.00    +0.000 N 
ATOM    796  N1  A   B  20       3.890 -13.883  26.610  0.00  0.00    +0.000 NA
ATOM    797  C2  A   B  20       3.933 -14.682  25.536  0.00  0.00    +0.000 A 
ATOM    798  N3  A   B  20       4.988 -15.264  24.963  0.00  0.00    +0.000 NA
ATOM    799  C4  A   B  20       6.123 -14.949  25.622  0.00  0.00    +0.000 A 
ATOM    800  H   A   B  20       4.136 -12.423  28.630  0.00  0.00    +0.000 HD
ATOM    801  H   A   B  20       5.829 -12.549  28.795  0.00  0.00    +0.000 HD
ENDBRANCH 219 790
BRANCH 229 802
ATOM    802  N9  A   B  21       5.287 -12.221  23.106  0.00  0.00    +0.000 N 
ATOM    803  C8  A   B  21       6.596 -12.129  23.503  0.00  0.00    +0.000 A 
ATOM    804  N7  A   B  21       6.758 -11.507  24.653  0.00  0.00    +0.000 NA
ATOM    805  C5  A   B  21       5.470 -11.166  25.033  0.00  0.00    +0.000 A 
ATOM    806  C6  A   B  21       4.959 -10.493  26.157  0.00  0.00    +0.000 A 
ATOM    807  N6  A   B  21       5.727 -10.014  27.147  0.00  0.00    +0.000 N 
ATOM    808  N1  A   B  21       3.621 -10.317  26.231  0.00  0.00    +0.000 NA
ATOM    809  C2  A   B  21       2.856 -10.787  25.240  0.00  0.00    +0.000 A 
ATOM    810  N3  A   B  21       3.218 -11.439  24.132  0.00  0.00    +0.000 NA
ATOM    811  C4  A   B  21       4.554 -11.598  24.089  0.00  0.00    +0.000 A 
ATOM    812  H   A   B  21       6.704 -10.131  27.113  0.00  0.00    +0.000 HD
ATOM    813  H   A   B  21       5.314  -9.545  27.908  0.00  0.00    +0.000 HD
ENDBRANCH 229 802
BRANCH 309 814
ATOM    814  N9  A   B  29      19.418   3.851  11.009  0.00  0.00    +0.000 N 
ATOM    815  C8  A   B  29      19.358   4.917  11.873  0.00  0.00    +0.000 A 
ATOM    816  N7  A   B  29      18.135   5.331  12.113  0.00  0.00    +0.000 NA
ATOM    817  C5  A   B  29      17.336   4.485  11.355  0.00  0.00    +0.000 A 
ATOM    818  C6  A   B  29      15.945   4.399  11.172  0.00  0.00    +0.000 A 
ATOM    819  N6  A   B  29      15.068   5.219  11.769  0.00  0.00    +0.000 N 
ATOM    820  N1  A   B  29      15.475   3.437  10.349  0.00  0.00    +0.000 NA
ATOM    821  C2  A   B  29      16.348   2.619   9.748  0.00  0.00    +0.000 A 
ATOM    822  N3  A   B  29      17.681   2.599   9.840  0.00  0.00    +0.000 NA
ATOM    823  C4  A   B  29      18.115   3.569  10.669  0.00  0.00    +0.000 A 
ATOM    824  H   A   B  29      14.103   5.112  11.604  0.00  0.00    +0.000 HD
ATOM    825  H   A   B  29      15.389   5.928  12.372  0.00  0.00    +0.000 HD
ENDBRANCH 309 814
BRANCH 319 826
ATOM    826  N9  A   B  30      17.593   4.699   6.848  0.00  0.00    +0.000 N 
ATOM    827  C8  A   B  30      18.258   5.570   7.676  0.00  0.00    +0.000 A 
ATOM    828  N7  A   B  30      17.458   6.296   8.423  0.00  0.00    +0.000 NA
ATOM    829  C5  A   B  30      16.183   5.877   8.063  0.00  0.00    +0.000 A 
ATOM    830  C6  A   B  30      14.898   6.259   8.490  0.00  0.00    +0.000 A 
ATOM    831  N6  A   B  30      14.676   7.200   9.419  0.00  0.00    +0.000 N 
ATOM    832  N1  A   B  30      13.838   5.643   7.927  0.00  0.00    +0.000 NA
ATOM    833  C2  A   B  30      14.055   4.707   6.996  0.00  0.00    +0.000 A 
ATOM    834  N3  A   B  30      15.215   4.259   6.509  0.00  0.00    +0.000 NA
ATOM    835  C4  A   B  30      16.253   4.894   7.092  0.00  0.00    +0.000 A 
ATOM    836  H   A   B  30      13.754   7.427   9.679  0.00  0.00    +0.000 HD
ATOM    837  H   A   B  30      15.435   7.664   9.841  0.00  0.00    +0.000 HD
ENDBRANCH 319 826
BRANCH 329 838
ATOM    838  N9  A   B  31      14.630   6.783   3.839  0.00  0.00    +0.000 N 
ATOM    839  C8  A   B  31      15.815   7.234   4.363  0.00  0.00    +0.000 A 
ATOM    840  N7  A   B  31      15.664   8.024   5.402  0.00  0.00    +0.000 NA
ATOM    841  C5  A   B  31      14.288   8.100   5.572  0.00  0.00    +0.000 A 
ATOM    842  C6  A   B  31      13.480   8.780   6.501  0.00  0.00    +0.000 A 
ATOM    843  N6  A   B  31      13.967   9.554   7.481  0.00  0.00    +0.000 N 
ATOM    844  N1  A   B  31      12.140   8.640   6.390  0.00  0.00    +0.000 NA
ATOM    845  C2  A   B  31      11.648   7.870   5.411  0.00  0.00    +0.000 A 
ATOM    846  N3  A   B  31      12.306   7.179   4.477  0.00  0.00    +0.000 NA
ATOM    847  C4  A   B  31      13.639   7.340   4.616  0.00  0.00    +0.000 A 
ATOM    848  H   A   B  31      14.940   9.670   7.580  0.00  0.00    +0.000 HD
ATOM    849  H   A   B  31      13.352  10.007   8.102  0.00  0.00    +0.000 HD
ENDBRANCH 329 838
BRANCH 339 850
ATOM    850  N9  A   B  32      11.690  10.086   2.128  0.00  0.00    +0.000 N 
ATOM    851  C8  A   B  32      13.063  10.087   2.131  0.00  0.00    +0.000 A 
ATOM    852  N7  A   B  32      13.587  10.700   3.169  0.00  0.00    +0.000 NA
ATOM    853  C5  A   B  32      12.489  11.134   3.896  0.00  0.00    +0.000 A 
ATOM    854  C6  A   B  32      12.371  11.848   5.102  0.00  0.00    +0.000 A 
ATOM    855  N6  A   B  32      13.420  12.273   5.819  0.00  0.00    +0.000 N 
ATOM    856  N1  A   B  32      11.124  12.116   5.551  0.00  0.00    +0.000 NA
ATOM    857  C2  A   B  32      10.075  11.694   4.836  0.00  0.00    +0.000 A 
ATOM    858  N3  A   B  32      10.059  11.013   3.690  0.00  0.00    +0.000 NA
ATOM    859  C4  A   B  32      11.313  10.763   3.266  0.00  0.00    +0.000 A 
ATOM    860  H   A   B  32      14.336  12.088   5.509  0.00  0.00    +0.000 HD
ATOM    861  H   A   B  32      13.275  12.771   6.656  0.00  0.00    +0.000 HD
ENDBRANCH 339 850
BRANCH 359 862
ATOM    862  N9  A   B  34      10.281  19.188   2.136  0.00  0.00    +0.000 N 
ATOM    863  C8  A   B  34      10.794  18.302   1.223  0.00  0.00    +0.000 A 
ATOM    864  N7  A   B  34      11.941  17.775   1.588  0.00  0.00    +0.000 NA
ATOM    865  C5  A   B  34      12.202  18.354   2.820  0.00  0.00    +0.000 A 
ATOM    866  C6  A   B  34      13.267  18.212   3.729  0.00  0.00    +0.000 A 
ATOM    867  N6  A   B  34      14.316  17.401   3.521  0.00  0.00    +0.000 N 
ATOM    868  N1  A   B  34      13.220  18.933   4.868  0.00  0.00    +0.000 NA
ATOM    869  C2  A   B  34      12.176  19.741   5.075  0.00  0.00    +0.000 A 
ATOM    870  N3  A   B  34      11.114  19.960   4.298  0.00  0.00    +0.000 NA
ATOM    871  C4  A   B  34      11.189  19.227   3.171  0.00  0.00    +0.000 A 
ATOM    872  H   A   B  34      14.369  16.866   2.696  0.00  0.00    +0.000 HD
ATOM    873  H   A   B  34      15.033  17.341   4.193  0.00  0.00    +0.000 HD
ENDBRANCH 359 862
BRANCH 472 874
ATOM    874  N9  A   B  43      25.173  15.606  -6.556  0.00  0.00    +0.000 N 
ATOM    875  C8  A   B  43      24.286  16.576  -6.939  0.00  0.00    +0.000 A 
ATOM    876  N7  A   B  43      24.771  17.794  -6.865  0.00  0.00    +0.000 NA
ATOM    877  C5  A   B  43      26.066  17.613  -6.401  0.00  0.00    +0.000 A 
ATOM    878  C6  A   B  43      27.103  18.514  -6.113  0.00  0.00    +0.000 A 
ATOM    879  N6  A   B  43      26.992  19.844  -6.255  0.00  0.00    +0.000 N 
ATOM    880  N1  A   B  43      28.272  18.006  -5.671  0.00  0.00    +0.000 NA
ATOM    881  C2  A   B  43      28.385  16.678  -5.530  0.00  0.00    +0.000 A 
ATOM    882  N3  A   B  43      27.477  15.729  -5.769  0.00  0.00    +0.000 NA
ATOM    883  C4  A   B  43      26.325  16.271  -6.209  0.00  0.00    +0.000 A 
ATOM    884  H   A   B  43      26.148  20.236  -6.576  0.00  0.00    +0.000 HD
ATOM    885  H   A   B  43      27.755  20.428  -6.038  0.00  0.00    +0.000 HD
ENDBRANCH 472 874
BRANCH 580 886
ATOM    886  N9  A   B  53      14.260  -1.221  10.672  0.00  0.00    +0.000 N 
ATOM    887  C8  A   B  53      12.951  -0.882  10.898  0.00  0.00    +0.000 A 
ATOM    888  N7  A   B  53      12.800   0.112  11.746  0.00  0.00    +0.000 NA
ATOM    889  C5  A   B  53      14.097   0.447  12.107  0.00  0.00    +0.000 A 
ATOM    890  C6  A   B  53      14.621   1.419  12.973  0.00  0.00    +0.000 A 
ATOM    891  N6  A   B  53      13.860   2.275  13.670  0.00  0.00    +0.000 N 
ATOM    892  N1  A   B  53      15.961   1.489  13.105  0.00  0.00    +0.000 NA
ATOM    893  C2  A   B  53      16.723   0.634  12.410  0.00  0.00    +0.000 A 
ATOM    894  N3  A   B  53      16.348  -0.326  11.560  0.00  0.00    +0.000 NA
ATOM    895  C4  A   B  53      15.007  -0.367  11.452  0.00  0.00    +0.000 A 
ATOM    896  H   A   B  53      12.879   2.241  13.588  0.00  0.00    +0.000 HD
ATOM    897  H   A   B  53      14.282   2.938  14.264  0.00  0.00    +0.000 HD
ENDBRANCH 580 886
BRANCH 590 898
ATOM    898  N9  A   B  54      16.409  -2.614  14.464  0.00  0.00    +0.000 N 
ATOM    899  C8  A   B  54      15.099  -2.832  14.122  0.00  0.00    +0.000 A 
ATOM    900  N7  A   B  54      14.276  -1.919  14.584  0.00  0.00    +0.000 NA
ATOM    901  C5  A   B  54      15.098  -1.045  15.280  0.00  0.00    +0.000 A 
ATOM    902  C6  A   B  54      14.839   0.131  16.001  0.00  0.00    +0.000 A 
ATOM    903  N6  A   B  54      13.611   0.651  16.149  0.00  0.00    +0.000 N 
ATOM    904  N1  A   B  54      15.885   0.763  16.574  0.00  0.00    +0.000 NA
ATOM    905  C2  A   B  54      17.109   0.242  16.431  0.00  0.00    +0.000 A 
ATOM    906  N3  A   B  54      17.482  -0.858  15.773  0.00  0.00    +0.000 NA
ATOM    907  C4  A   B  54      16.414  -1.462  15.215  0.00  0.00    +0.000 A 
ATOM    908  H   A   B  54      12.835   0.205  15.739  0.00  0.00    +0.000 HD
ATOM    909  H   A   B  54      13.486   1.478  16.668  0.00  0.00    +0.000 HD
ENDBRANCH 590 898
BRANCH  79 910
ATOM    910  N9  A   B   6     -13.001  -4.744  27.547  0.00  0.00    +0.000 N 
ATOM    911  C8  A   B   6     -12.052  -5.738  27.582  0.00  0.00    +0.000 A 
ATOM    912  N7  A   B   6     -11.384  -5.790  28.708  0.00  0.00    +0.000 NA
ATOM    913  C5  A   B   6     -11.929  -4.763  29.465  0.00  0.00    +0.000 A 
ATOM    914  C6  A   B   6     -11.654  -4.302  30.762  0.00  0.00    +0.000 A 
ATOM    915  N6  A   B   6     -10.718  -4.836  31.553  0.00  0.00    +0.000 N 
ATOM    916  N1  A   B   6     -12.379  -3.262  31.226  0.00  0.00    +0.000 NA
ATOM    917  C2  A   B   6     -13.317  -2.725  30.429  0.00  0.00    +0.000 A 
ATOM    918  N3  A   B   6     -13.664  -3.073  29.193  0.00  0.00    +0.000 NA
ATOM    919  C4  A   B   6     -12.924  -4.113  28.765  0.00  0.00    +0.000 A 
ATOM    920  H   A   B   6     -10.178  -5.595  31.234  0.00  0.00    +0.000 HD
ATOM    921  H   A   B   6     -10.568  -4.470  32.455  0.00  0.00    +0.000 HD
ENDBRANCH  79 910
BRANCH  59 922
ATOM    922  N9  A   B   4     -14.454 -13.139  30.783  0.00  0.00    +0.000 N 
ATOM    923  C8  A   B   4     -13.497 -13.208  31.758  0.00  0.00    +0.000 A 
ATOM    924  N7  A   B   4     -13.467 -12.154  32.541  0.00  0.00    +0.000 NA
ATOM    925  C5  A   B   4     -14.472 -11.339  32.044  0.00  0.00    +0.000 A 
ATOM    926  C6  A   B   4     -14.948 -10.080  32.438  0.00  0.00    +0.000 A 
ATOM    927  N6  A   B   4     -14.445  -9.385  33.468  0.00  0.00    +0.000 N 
ATOM    928  N1  A   B   4     -15.963  -9.544  31.733  0.00  0.00    +0.000 NA
ATOM    929  C2  A   B   4     -16.464 -10.235  30.702  0.00  0.00    +0.000 A 
ATOM    930  N3  A   B   4     -16.101 -11.428  30.238  0.00  0.00    +0.000 NA
ATOM    931  C4  A   B   4     -15.087 -11.933  30.963  0.00  0.00    +0.000 A 
ATOM    932  H   A   B   4     -14.821  -8.505  33.698  0.00  0.00    +0.000 HD
ATOM    933  H   A   B   4     -13.700  -9.755  33.994  0.00  0.00    +0.000 HD
ENDBRANCH  59 922
BRANCH 630 934
ATOM    934  N1  C   B  58       9.682   0.076  30.434  0.00  0.00    +0.000 N 
ATOM    935  C2  C   B  58       8.559   0.209  29.610  0.00  0.00    +0.000 A 
ATOM    936  O2  C   B  58       7.776   1.155  29.801  0.00  0.00    +0.000 OA
ATOM    937  N3  C   B  58       8.355  -0.695  28.620  0.00  0.00    +0.000 NA
ATOM    938  C4  C   B  58       9.219  -1.701  28.442  0.00  0.00    +0.000 A 
ATOM    939  N4  C   B  58       8.977  -2.568  27.456  0.00  0.00    +0.000 N 
ATOM    940  C5  C   B  58      10.365  -1.860  29.271  0.00  0.00    +0.000 A 
ATOM    941  C6  C   B  58      10.556  -0.960  30.245  0.00  0.00    +0.000 A 
ATOM    942  H   C   B  58       8.183  -2.455  26.885  0.00  0.00    +0.000 HD
ATOM    943  H   C   B  58       9.592  -3.321  27.300  0.00  0.00    +0.000 HD
ENDBRANCH 630 934
BRANCH 189 944
ATOM    944  N1  C   B  17      13.223 -20.362  37.713  0.00  0.00    +0.000 N 
ATOM    945  C2  C   B  17      13.829 -20.727  36.505  0.00  0.00    +0.000 A 
ATOM    946  O2  C   B  17      15.026 -20.463  36.321  0.00  0.00    +0.000 OA
ATOM    947  N3  C   B  17      13.087 -21.369  35.564  0.00  0.00    +0.000 NA
ATOM    948  C4  C   B  17      11.800 -21.642  35.791  0.00  0.00    +0.000 A 
ATOM    949  N4  C   B  17      11.116 -22.275  34.837  0.00  0.00    +0.000 N 
ATOM    950  C5  C   B  17      11.160 -21.282  37.009  0.00  0.00    +0.000 A 
ATOM    951  C6  C   B  17      11.902 -20.648  37.932  0.00  0.00    +0.000 A 
ATOM    952  H   C   B  17      11.561 -22.523  33.995  0.00  0.00    +0.000 HD
ATOM    953  H   C   B  17      10.166 -22.494  34.975  0.00  0.00    +0.000 HD
ENDBRANCH 189 944
BRANCH 179 954
ATOM    954  N1  C   B  16      10.845 -24.145  39.889  0.00  0.00    +0.000 N 
ATOM    955  C2  C   B  16      12.072 -24.349  39.256  0.00  0.00    +0.000 A 
ATOM    956  O2  C   B  16      13.122 -24.075  39.858  0.00  0.00    +0.000 OA
ATOM    957  N3  C   B  16      12.089 -24.848  37.996  0.00  0.00    +0.000 NA
ATOM    958  C4  C   B  16      10.942 -25.129  37.376  0.00  0.00    +0.000 A 
ATOM    959  N4  C   B  16      11.007 -25.616  36.136  0.00  0.00    +0.000 N 
ATOM    960  C5  C   B  16       9.682 -24.925  37.999  0.00  0.00    +0.000 A 
ATOM    961  C6  C   B  16       9.676 -24.434  39.248  0.00  0.00    +0.000 A 
ATOM    962  H   C   B  16      11.882 -25.756  35.707  0.00  0.00    +0.000 HD
ATOM    963  H   C   B  16      10.180 -25.835  35.649  0.00  0.00    +0.000 HD
ENDBRANCH 179 954
BRANCH 670 964
ATOM    964  N1  C   B  62      -8.211   0.106  35.666  0.00  0.00    +0.000 N 
ATOM    965  C2  C   B  62      -9.024   0.334  34.552  0.00  0.00    +0.000 A 
ATOM    966  O2  C   B  62      -9.671   1.391  34.482  0.00  0.00    +0.000 OA
ATOM    967  N3  C   B  62      -9.085  -0.605  33.576  0.00  0.00    +0.000 NA
ATOM    968  C4  C   B  62      -8.376  -1.730  33.679  0.00  0.00    +0.000 A 
ATOM    969  N4  C   B  62      -8.470  -2.626  32.693  0.00  0.00    +0.000 N 
ATOM    970  C5  C   B  62      -7.542  -1.985  34.801  0.00  0.00    +0.000 A 
ATOM    971  C6  C   B  62      -7.488  -1.052  35.762  0.00  0.00    +0.000 A 
ATOM    972  H   C   B  62      -9.049  -2.446  31.917  0.00  0.00    +0.000 HD
ATOM    973  H   C   B  62      -7.960  -3.467  32.742  0.00  0.00    +0.000 HD
ENDBRANCH 670 964
BRANCH 239 974
ATOM    974  N1  C   B  22       3.164  -8.090  22.800  0.00  0.00    +0.000 N 
ATOM    975  C2  C   B  22       2.917  -7.552  24.073  0.00  0.00    +0.000 A 
ATOM    976  O2  C   B  22       1.759  -7.234  24.377  0.00  0.00    +0.000 OA
ATOM    977  N3  C   B  22       3.950  -7.393  24.937  0.00  0.00    +0.000 NA
ATOM    978  C4  C   B  22       5.185  -7.746  24.576  0.00  0.00    +0.000 A 
ATOM    979  N4  C   B  22       6.170  -7.570  25.463  0.00  0.00    +0.000 N 
ATOM    980  C5  C   B  22       5.463  -8.292  23.291  0.00  0.00    +0.000 A 
ATOM    981  C6  C   B  22       4.433  -8.444  22.444  0.00  0.00    +0.000 A 
ATOM    982  H   C   B  22       7.093  -7.820  25.229  0.00  0.00    +0.000 HD
ATOM    983  H   C   B  22       5.972  -7.191  26.350  0.00  0.00    +0.000 HD
ENDBRANCH 239 974
BRANCH 149 984
ATOM    984  N1  C   B  13       2.994 -20.284  28.912  0.00  0.00    +0.000 N 
ATOM    985  C2  C   B  13       4.080 -19.785  29.646  0.00  0.00    +0.000 A 
ATOM    986  O2  C   B  13       5.216 -20.243  29.438  0.00  0.00    +0.000 OA
ATOM    987  N3  C   B  13       3.865 -18.812  30.566  0.00  0.00    +0.000 NA
ATOM    988  C4  C   B  13       2.630 -18.343  30.767  0.00  0.00    +0.000 A 
ATOM    989  N4  C   B  13       2.468 -17.386  31.683  0.00  0.00    +0.000 N 
ATOM    990  C5  C   B  13       1.510 -18.838  30.038  0.00  0.00    +0.000 A 
ATOM    991  C6  C   B  13       1.737 -19.799  29.131  0.00  0.00    +0.000 A 
ATOM    992  H   C   B  13       1.572 -17.018  31.857  0.00  0.00    +0.000 HD
ATOM    993  H   C   B  13       3.245 -17.048  32.185  0.00  0.00    +0.000 HD
ENDBRANCH 149 984
BRANCH 700 994
ATOM    994  N1  C   B  65     -19.282  -6.327  33.116  0.00  0.00    +0.000 N 
ATOM    995  C2  C   B  65     -18.334  -7.305  32.806  0.00  0.00    +0.000 A 
ATOM    996  O2  C   B  65     -18.429  -7.928  31.741  0.00  0.00    +0.000 OA
ATOM    997  N3  C   B  65     -17.321  -7.542  33.677  0.00  0.00    +0.000 NA
ATOM    998  C4  C   B  65     -17.242  -6.851  34.815  0.00  0.00    +0.000 A 
ATOM    999  N4  C   B  65     -16.230  -7.123  35.640  0.00  0.00    +0.000 N 
ATOM   1000  C5  C   B  65     -18.199  -5.855  35.153  0.00  0.00    +0.000 A 
ATOM   1001  C6  C   B  65     -19.191  -5.626  34.284  0.00  0.00    +0.000 A 
ATOM   1002  H   C   B  65     -15.571  -7.814  35.400  0.00  0.00    +0.000 HD
ATOM   1003  H   C   B  65     -16.142  -6.633  36.489  0.00  0.00    +0.000 HD
ENDBRANCH 700 994
BRANCH  891004
ATOM   1004  N1  C   B   7     -10.937  -0.536  28.485  0.00  0.00    +0.000 N 
ATOM   1005  C2  C   B   7     -10.506  -0.468  29.813  0.00  0.00    +0.000 A 
ATOM   1006  O2  C   B   7     -10.997   0.387  30.565  0.00  0.00    +0.000 OA
ATOM   1007  N3  C   B   7      -9.563  -1.336  30.248  0.00  0.00    +0.000 NA
ATOM   1008  C4  C   B   7      -9.058  -2.248  29.417  0.00  0.00    +0.000 A 
ATOM   1009  N4  C   B   7      -8.134  -3.082  29.897  0.00  0.00    +0.000 N 
ATOM   1010  C5  C   B   7      -9.483  -2.338  28.061  0.00  0.00    +0.000 A 
ATOM   1011  C6  C   B   7     -10.415  -1.474  27.641  0.00  0.00    +0.000 A 
ATOM   1012  H   C   B   7      -7.739  -3.768  29.312  0.00  0.00    +0.000 HD
ATOM   1013  H   C   B   7      -7.847  -3.011  30.836  0.00  0.00    +0.000 HD
ENDBRANCH  891004
BRANCH 3891014
ATOM   1014  N9  A   B  37      22.162  22.831   0.398  0.00  0.00    +0.000 N 
ATOM   1015  C8  A   B  37      21.045  23.440  -0.109  0.00  0.00    +0.000 A 
ATOM   1016  N7  A   B  37      20.516  22.807  -1.136  0.00  0.00    +0.000 NA
ATOM   1017  C5  A   B  37      21.344  21.706  -1.312  0.00  0.00    +0.000 A 
ATOM   1018  C6  A   B  37      21.329  20.639  -2.231  0.00  0.00    +0.000 A 
ATOM   1019  N1  A   B  37      22.299  19.707  -2.130  0.00  0.00    +0.000 NA
ATOM   1020  C2  A   B  37      23.224  19.841  -1.169  0.00  0.00    +0.000 A 
ATOM   1021  N3  A   B  37      23.341  20.796  -0.245  0.00  0.00    +0.000 NA
ATOM   1022  C4  A   B  37      22.358  21.707  -0.375  0.00  0.00    +0.000 A 
BRANCH10181023
ATOM   1023  N6  A   B  37      20.405  20.499  -3.197  0.00  0.00    +0.000 N 
ATOM   1024  H   A   B  37      20.447  19.730  -3.811  0.00  0.00    +0.000 HD
ATOM   1025  H   A   B  37      19.686  21.165  -3.291  0.00  0.00    +0.000 HD
ENDBRANCH10181023
ENDBRANCH 3891014
BRANCH 4171026
ATOM   1026  N1  U   B  39      33.698  27.698  -6.473  0.00  0.00    +0.000 N 
ATOM   1027  C2  U   B  39      34.431  28.825  -6.767  0.00  0.00    +0.000 A 
ATOM   1028  O2  U   B  39      33.958  29.945  -6.742  0.00  0.00    +0.000 OA
ATOM   1029  N3  U   B  39      35.748  28.599  -7.087  0.00  0.00    +0.000 N 
ATOM   1030  C4  U   B  39      36.391  27.382  -7.148  0.00  0.00    +0.000 A 
ATOM   1031  O4  U   B  39      37.576  27.341  -7.451  0.00  0.00    +0.000 OA
ATOM   1032  C5  U   B  39      35.564  26.264  -6.839  0.00  0.00    +0.000 A 
ATOM   1033  C6  U   B  39      34.280  26.453  -6.518  0.00  0.00    +0.000 A 
ATOM   1034  H   U   B  39      36.291  29.393  -7.295  0.00  0.00    +0.000 HD
ENDBRANCH 4171026
BRANCH 6401035
ATOM   1035  N9  A   B  59       5.809  -1.503  31.380  0.00  0.00    +0.000 N 
ATOM   1036  C8  A   B  59       6.968  -2.182  31.648  0.00  0.00    +0.000 A 
ATOM   1037  N7  A   B  59       7.286  -3.065  30.729  0.00  0.00    +0.000 NA
ATOM   1038  C5  A   B  59       6.265  -2.958  29.793  0.00  0.00    +0.000 A 
ATOM   1039  C6  A   B  59       6.015  -3.622  28.578  0.00  0.00    +0.000 A 
ATOM   1040  N1  A   B  59       4.908  -3.276  27.890  0.00  0.00    +0.000 NA
ATOM   1041  C2  A   B  59       4.106  -2.329  28.392  0.00  0.00    +0.000 A 
ATOM   1042  N3  A   B  59       4.235  -1.633  29.522  0.00  0.00    +0.000 NA
ATOM   1043  C4  A   B  59       5.350  -2.001  30.182  0.00  0.00    +0.000 A 
BRANCH10391044
ATOM   1044  N6  A   B  59       6.814  -4.575  28.075  0.00  0.00    +0.000 N 
ATOM   1045  H   A   B  59       6.588  -5.005  27.219  0.00  0.00    +0.000 HD
ATOM   1046  H   A   B  59       7.626  -4.844  28.562  0.00  0.00    +0.000 HD
ENDBRANCH10391044
ENDBRANCH 6401035
BRANCH 2991047
ATOM   1047  N1  U   B  28      19.315   3.960  15.555  0.00  0.00    +0.000 N 
ATOM   1048  C2  U   B  28      18.638   3.022  14.793  0.00  0.00    +0.000 A 
ATOM   1049  O2  U   B  28      19.174   2.031  14.324  0.00  0.00    +0.000 OA
ATOM   1050  N3  U   B  28      17.299   3.283  14.600  0.00  0.00    +0.000 N 
ATOM   1051  C4  U   B  28      16.591   4.367  15.079  0.00  0.00    +0.000 A 
ATOM   1052  O4  U   B  28      15.389   4.466  14.821  0.00  0.00    +0.000 OA
ATOM   1053  C5  U   B  28      17.361   5.292  15.855  0.00  0.00    +0.000 A 
ATOM   1054  C6  U   B  28      18.665   5.062  16.059  0.00  0.00    +0.000 A 
ATOM   1055  H   U   B  28      16.795   2.628  14.065  0.00  0.00    +0.000 HD
ENDBRANCH 2991047
BRANCH 5201056
ATOM   1056  N1  U   B  47      16.231  19.749   8.648  0.00  0.00    +0.000 N 
ATOM   1057  C2  U   B  47      15.201  19.735   7.721  0.00  0.00    +0.000 A 
ATOM   1058  O2  U   B  47      14.282  20.533   7.736  0.00  0.00    +0.000 OA
ATOM   1059  N3  U   B  47      15.290  18.746   6.768  0.00  0.00    +0.000 N 
ATOM   1060  C4  U   B  47      16.280  17.790   6.654  0.00  0.00    +0.000 A 
ATOM   1061  O4  U   B  47      16.224  16.962   5.740  0.00  0.00    +0.000 OA
ATOM   1062  C5  U   B  47      17.305  17.871   7.650  0.00  0.00    +0.000 A 
ATOM   1063  C6  U   B  47      17.247  18.824   8.591  0.00  0.00    +0.000 A 
ATOM   1064  H   U   B  47      14.571  18.717   6.096  0.00  0.00    +0.000 HD
ENDBRANCH 5201056
BRANCH 4441065
ATOM   1065  N1  U   B  41      21.841  23.200 -13.283  0.00  0.00    +0.000 N 
ATOM   1066  C2  U   B  41      21.895  22.532 -14.489  0.00  0.00    +0.000 A 
ATOM   1067  O2  U   B  41      20.967  21.879 -14.930  0.00  0.00    +0.000 OA
ATOM   1068  N3  U   B  41      23.089  22.642 -15.162  0.00  0.00    +0.000 N 
ATOM   1069  C4  U   B  41      24.202  23.352 -14.764  0.00  0.00    +0.000 A 
ATOM   1070  O4  U   B  41      25.200  23.358 -15.487  0.00  0.00    +0.000 OA
ATOM   1071  C5  U   B  41      24.061  24.036 -13.516  0.00  0.00    +0.000 A 
ATOM   1072  C6  U   B  41      22.907  23.936 -12.832  0.00  0.00    +0.000 A 
ATOM   1073  H   U   B  41      23.156  22.163 -16.019  0.00  0.00    +0.000 HD
ENDBRANCH 4441065
BRANCH 6901074
ATOM   1074  N9  A   B  64     -16.542  -2.599  34.041  0.00  0.00    +0.000 N 
ATOM   1075  C8  A   B  64     -15.818  -2.910  35.163  0.00  0.00    +0.000 A 
ATOM   1076  N7  A   B  64     -15.032  -3.948  35.017  0.00  0.00    +0.000 NA
ATOM   1077  C5  A   B  64     -15.253  -4.343  33.705  0.00  0.00    +0.000 A 
ATOM   1078  C6  A   B  64     -14.715  -5.388  32.935  0.00  0.00    +0.000 A 
ATOM   1079  N1  A   B  64     -15.141  -5.511  31.661  0.00  0.00    +0.000 NA
ATOM   1080  C2  A   B  64     -16.045  -4.642  31.197  0.00  0.00    +0.000 A 
ATOM   1081  N3  A   B  64     -16.619  -3.623  31.826  0.00  0.00    +0.000 NA
ATOM   1082  C4  A   B  64     -16.173  -3.526  33.092  0.00  0.00    +0.000 A 
BRANCH10781083
ATOM   1083  N6  A   B  64     -13.810  -6.258  33.398  0.00  0.00    +0.000 N 
ATOM   1084  H   A   B  64     -13.468  -6.971  32.812  0.00  0.00    +0.000 HD
ATOM   1085  H   A   B  64     -13.486  -6.185  34.325  0.00  0.00    +0.000 HD
ENDBRANCH10781083
ENDBRANCH 6901074
BRANCH 6101086
ATOM   1086  N9  A   B  56      16.171  -1.397  23.567  0.00  0.00    +0.000 N 
ATOM   1087  C8  A   B  56      15.855  -2.493  22.801  0.00  0.00    +0.000 A 
ATOM   1088  N7  A   B  56      14.631  -2.469  22.324  0.00  0.00    +0.000 NA
ATOM   1089  C5  A   B  56      14.105  -1.280  22.810  0.00  0.00    +0.000 A 
ATOM   1090  C6  A   B  56      12.851  -0.669  22.663  0.00  0.00    +0.000 A 
ATOM   1091  N1  A   B  56      12.652   0.517  23.278  0.00  0.00    +0.000 NA
ATOM   1092  C2  A   B  56      13.651   1.050  23.993  0.00  0.00    +0.000 A 
ATOM   1093  N3  A   B  56      14.878   0.572  24.203  0.00  0.00    +0.000 NA
ATOM   1094  C4  A   B  56      15.041  -0.610  23.576  0.00  0.00    +0.000 A 
BRANCH10901095
ATOM   1095  N6  A   B  56      11.845  -1.205  21.951  0.00  0.00    +0.000 N 
ATOM   1096  H   A   B  56      11.970  -2.069  21.495  0.00  0.00    +0.000 HD
ATOM   1097  H   A   B  56      10.983  -0.734  21.885  0.00  0.00    +0.000 HD
ENDBRANCH10901095
ENDBRANCH 6101086
BRANCH 3491098
ATOM   1098  N1  U   B  33       9.937  14.463   1.817  0.00  0.00    +0.000 N 
ATOM   1099  C2  U   B  33      10.129  15.049   3.059  0.00  0.00    +0.000 A 
ATOM   1100  O2  U   B  33       9.227  15.564   3.694  0.00  0.00    +0.000 OA
ATOM   1101  N3  U   B  33      11.420  15.007   3.535  0.00  0.00    +0.000 N 
ATOM   1102  C4  U   B  33      12.513  14.452   2.906  0.00  0.00    +0.000 A 
ATOM   1103  O4  U   B  33      13.617  14.489   3.458  0.00  0.00    +0.000 OA
ATOM   1104  C5  U   B  33      12.239  13.870   1.627  0.00  0.00    +0.000 A 
ATOM   1105  C6  U   B  33      10.990  13.895   1.142  0.00  0.00    +0.000 A 
ATOM   1106  H   U   B  33      11.579  15.416   4.416  0.00  0.00    +0.000 HD
ENDBRANCH 3491098
BRANCH  691107
ATOM   1107  N1  U   B   5     -14.054  -9.045  28.237  0.00  0.00    +0.000 N 
ATOM   1108  C2  U   B   5     -14.585  -7.931  28.863  0.00  0.00    +0.000 A 
ATOM   1109  O2  U   B   5     -15.561  -7.328  28.443  0.00  0.00    +0.000 OA
ATOM   1110  N3  U   B   5     -13.928  -7.532  30.002  0.00  0.00    +0.000 N 
ATOM   1111  C4  U   B   5     -12.821  -8.127  30.571  0.00  0.00    +0.000 A 
ATOM   1112  O4  U   B   5     -12.344  -7.656  31.600  0.00  0.00    +0.000 OA
ATOM   1113  C5  U   B   5     -12.335  -9.276  29.872  0.00  0.00    +0.000 A 
ATOM   1114  C6  U   B   5     -12.955  -9.685  28.760  0.00  0.00    +0.000 A 
ATOM   1115  H   U   B   5     -14.285  -6.737  30.461  0.00  0.00    +0.000 HD
ENDBRANCH  691107
BRANCH 2691116
ATOM   1116  N1  U   B  25       8.700   3.406  23.882  0.00  0.00    +0.000 N 
ATOM   1117  C2  U   B  25       9.876   2.679  23.952  0.00  0.00    +0.000 A 
ATOM   1118  O2  U   B  25      10.790   2.968  24.701  0.00  0.00    +0.000 OA
ATOM   1119  N3  U   B  25       9.943   1.597  23.110  0.00  0.00    +0.000 N 
ATOM   1120  C4  U   B  25       8.976   1.179  22.222  0.00  0.00    +0.000 A 
ATOM   1121  O4  U   B  25       9.183   0.183  21.526  0.00  0.00    +0.000 OA
ATOM   1122  C5  U   B  25       7.792   1.981  22.207  0.00  0.00    +0.000 A 
ATOM   1123  C6  U   B  25       7.698   3.042  23.017  0.00  0.00    +0.000 A 
ATOM   1124  H   U   B  25      10.769   1.063  23.144  0.00  0.00    +0.000 HD
ENDBRANCH 2691116
BRANCH 5101125
ATOM   1125  N1  U   B  46      20.520  19.597   6.397  0.00  0.00    +0.000 N 
ATOM   1126  C2  U   B  46      19.325  20.054   5.867  0.00  0.00    +0.000 A 
ATOM   1127  O2  U   B  46      18.791  21.088   6.228  0.00  0.00    +0.000 OA
ATOM   1128  N3  U   B  46      18.774  19.253   4.893  0.00  0.00    +0.000 N 
ATOM   1129  C4  U   B  46      19.285  18.066   4.406  0.00  0.00    +0.000 A 
ATOM   1130  O4  U   B  46      18.672  17.456   3.524  0.00  0.00    +0.000 OA
ATOM   1131  C5  U   B  46      20.521  17.662   5.006  0.00  0.00    +0.000 A 
ATOM   1132  C6  U   B  46      21.082  18.422   5.956  0.00  0.00    +0.000 A 
ATOM   1133  H   U   B  46      17.924  19.559   4.501  0.00  0.00    +0.000 HD
ENDBRANCH 5101125
BRANCH 2891134
ATOM   1134  N1  U   B  27      16.906   4.458  19.543  0.00  0.00    +0.000 N 
ATOM   1135  C2  U   B  27      16.991   3.280  18.817  0.00  0.00    +0.000 A 
ATOM   1136  O2  U   B  27      17.971   2.556  18.833  0.00  0.00    +0.000 OA
ATOM   1137  N3  U   B  27      15.878   2.977  18.065  0.00  0.00    +0.000 N 
ATOM   1138  C4  U   B  27      14.718   3.718  17.967  0.00  0.00    +0.000 A 
ATOM   1139  O4  U   B  27      13.802   3.315  17.248  0.00  0.00    +0.000 OA
ATOM   1140  C5  U   B  27      14.708   4.920  18.743  0.00  0.00    +0.000 A 
ATOM   1141  C6  U   B  27      15.777   5.241  19.486  0.00  0.00    +0.000 A 
ATOM   1142  H   U   B  27      15.914   2.144  17.542  0.00  0.00    +0.000 HD
ENDBRANCH 2891134
BRANCH 6201143
ATOM   1143  N9  A   B  57      13.575  -0.374  27.510  0.00  0.00    +0.000 N 
ATOM   1144  C8  A   B  57      13.908  -1.570  26.924  0.00  0.00    +0.000 A 
ATOM   1145  N7  A   B  57      12.984  -2.039  26.119  0.00  0.00    +0.000 NA
ATOM   1146  C5  A   B  57      11.973  -1.089  26.181  0.00  0.00    +0.000 A 
ATOM   1147  C6  A   B  57      10.719  -0.998  25.556  0.00  0.00    +0.000 A 
ATOM   1148  N1  A   B  57       9.958   0.079  25.834  0.00  0.00    +0.000 NA
ATOM   1149  C2  A   B  57      10.427   1.002  26.683  0.00  0.00    +0.000 A 
ATOM   1150  N3  A   B  57      11.590   1.028  27.332  0.00  0.00    +0.000 NA
ATOM   1151  C4  A   B  57      12.325  -0.061  27.032  0.00  0.00    +0.000 A 
BRANCH11471152
ATOM   1152  N6  A   B  57      10.246  -1.926  24.708  0.00  0.00    +0.000 N 
ATOM   1153  H   A   B  57       9.358  -1.811  24.298  0.00  0.00    +0.000 HD
ATOM   1154  H   A   B  57      10.787  -2.721  24.497  0.00  0.00    +0.000 HD
ENDBRANCH11471152
ENDBRANCH 6201143
BRANCH 2491155
ATOM   1155  N1  U   B  23       2.614  -3.436  23.722  0.00  0.00    +0.000 N 
ATOM   1156  C2  U   B  23       3.109  -3.091  24.971  0.00  0.00    +0.000 A 
ATOM   1157  O2  U   B  23       2.467  -2.456  25.787  0.00  0.00    +0.000 OA
ATOM   1158  N3  U   B  23       4.389  -3.518  25.228  0.00  0.00    +0.000 N 
ATOM   1159  C4  U   B  23       5.206  -4.238  24.383  0.00  0.00    +0.000 A 
ATOM   1160  O4  U   B  23       6.338  -4.551  24.758  0.00  0.00    +0.000 OA
ATOM   1161  C5  U   B  23       4.626  -4.553  23.115  0.00  0.00    +0.000 A 
ATOM   1162  C6  U   B  23       3.379  -4.150  22.836  0.00  0.00    +0.000 A 
ATOM   1163  H   U   B  23       4.762  -3.285  26.109  0.00  0.00    +0.000 HD
ENDBRANCH 2491155
BRANCH 2791164
ATOM   1164  N1  U   B  26      12.971   4.610  22.256  0.00  0.00    +0.000 N 
ATOM   1165  C2  U   B  26      13.722   3.502  21.902  0.00  0.00    +0.000 A 
ATOM   1166  O2  U   B  26      14.816   3.259  22.378  0.00  0.00    +0.000 OA
ATOM   1167  N3  U   B  26      13.141   2.679  20.965  0.00  0.00    +0.000 N 
ATOM   1168  C4  U   B  26      11.916   2.852  20.358  0.00  0.00    +0.000 A 
ATOM   1169  O4  U   B  26      11.529   2.025  19.530  0.00  0.00    +0.000 OA
ATOM   1170  C5  U   B  26      11.202   4.020  20.774  0.00  0.00    +0.000 A 
ATOM   1171  C6  U   B  26      11.740   4.838  21.686  0.00  0.00    +0.000 A 
ATOM   1172  H   U   B  26      13.655   1.882  20.700  0.00  0.00    +0.000 HD
ENDBRANCH 2791164
BRANCH 2591173
ATOM   1173  N1  U   B  24       4.851   0.809  24.651  0.00  0.00    +0.000 N 
ATOM   1174  C2  U   B  24       5.986   0.710  25.439  0.00  0.00    +0.000 A 
ATOM   1175  O2  U   B  24       6.169   1.391  26.432  0.00  0.00    +0.000 OA
ATOM   1176  N3  U   B  24       6.905  -0.220  25.019  0.00  0.00    +0.000 N 
ATOM   1177  C4  U   B  24       6.807  -1.042  23.915  0.00  0.00    +0.000 A 
ATOM   1178  O4  U   B  24       7.719  -1.830  23.665  0.00  0.00    +0.000 OA
ATOM   1179  C5  U   B  24       5.609  -0.876  23.154  0.00  0.00    +0.000 A 
ATOM   1180  C6  U   B  24       4.695   0.022  23.539  0.00  0.00    +0.000 A 
ATOM   1181  H   U   B  24       7.720  -0.310  25.563  0.00  0.00    +0.000 HD
ENDBRANCH 2591173
BRANCH 5001182
ATOM   1182  N1  U   B  45      23.365  19.323   2.956  0.00  0.00    +0.000 N 
ATOM   1183  C2  U   B  45      22.423  20.314   3.155  0.00  0.00    +0.000 A 
ATOM   1184  O2  U   B  45      22.602  21.270   3.892  0.00  0.00    +0.000 OA
ATOM   1185  N3  U   B  45      21.249  20.146   2.459  0.00  0.00    +0.000 N 
ATOM   1186  C4  U   B  45      20.927  19.112   1.600  0.00  0.00    +0.000 A 
ATOM   1187  O4  U   B  45      19.824  19.106   1.047  0.00  0.00    +0.000 OA
ATOM   1188  C5  U   B  45      21.953  18.130   1.447  0.00  0.00    +0.000 A 
ATOM   1189  C6  U   B  45      23.113  18.267   2.110  0.00  0.00    +0.000 A 
ATOM   1190  H   U   B  45      20.562  20.839   2.587  0.00  0.00    +0.000 HD
ENDBRANCH 5001182
BRANCH 6801191
ATOM   1191  N1  U   B  63     -12.582  -0.702  35.528  0.00  0.00    +0.000 N 
ATOM   1192  C2  U   B  63     -12.876  -1.173  34.262  0.00  0.00    +0.000 A 
ATOM   1193  O2  U   B  63     -13.631  -0.595  33.498  0.00  0.00    +0.000 OA
ATOM   1194  N3  U   B  63     -12.253  -2.350  33.918  0.00  0.00    +0.000 N 
ATOM   1195  C4  U   B  63     -11.385  -3.086  34.696  0.00  0.00    +0.000 A 
ATOM   1196  O4  U   B  63     -10.903  -4.128  34.246  0.00  0.00    +0.000 OA
ATOM   1197  C5  U   B  63     -11.133  -2.536  35.987  0.00  0.00    +0.000 A 
ATOM   1198  C6  U   B  63     -11.725  -1.391  36.352  0.00  0.00    +0.000 A 
ATOM   1199  H   U   B  63     -12.448  -2.705  33.020  0.00  0.00    +0.000 HD
ENDBRANCH 6801191
BRANCH 1291200
ATOM   1200  N1  U   B  11      -0.973 -12.565  26.733  0.00  0.00    +0.000 N 
ATOM   1201  C2  U   B  11       0.267 -13.022  26.305  0.00  0.00    +0.000 A 
ATOM   1202  O2  U   B  11       0.440 -13.571  25.230  0.00  0.00    +0.000 OA
ATOM   1203  N3  U   B  11       1.303 -12.819  27.189  0.00  0.00    +0.000 N 
ATOM   1204  C4  U   B  11       1.228 -12.218  28.426  0.00  0.00    +0.000 A 
ATOM   1205  O4  U   B  11       2.251 -12.106  29.103  0.00  0.00    +0.000 OA
ATOM   1206  C5  U   B  11      -0.085 -11.775  28.796  0.00  0.00    +0.000 A 
ATOM   1207  C6  U   B  11      -1.115 -11.958  27.959  0.00  0.00    +0.000 A 
ATOM   1208  H   U   B  11       2.191 -13.137  26.907  0.00  0.00    +0.000 HD
ENDBRANCH 1291200
BRANCH 3791209
ATOM   1209  N1  U   B  36      17.700  23.160   2.084  0.00  0.00    +0.000 N 
ATOM   1210  C2  U   B  36      18.503  22.037   1.957  0.00  0.00    +0.000 A 
ATOM   1211  O2  U   B  36      19.345  21.724   2.782  0.00  0.00    +0.000 OA
ATOM   1212  N3  U   B  36      18.285  21.289   0.822  0.00  0.00    +0.000 N 
ATOM   1213  C4  U   B  36      17.366  21.544  -0.177  0.00  0.00    +0.000 A 
ATOM   1214  O4  U   B  36      17.291  20.771  -1.138  0.00  0.00    +0.000 OA
ATOM   1215  C5  U   B  36      16.574  22.722   0.024  0.00  0.00    +0.000 A 
ATOM   1216  C6  U   B  36      16.765  23.471   1.121  0.00  0.00    +0.000 A 
ATOM   1217  H   U   B  36      18.844  20.486   0.710  0.00  0.00    +0.000 HD
ENDBRANCH 3791209
BRANCH 5501218
ATOM   1218  N1  U   B  50       7.973  10.346   8.292  0.00  0.00    +0.000 N 
ATOM   1219  C2  U   B  50       8.953   9.756   7.509  0.00  0.00    +0.000 A 
ATOM   1220  O2  U   B  50       8.710   9.194   6.457  0.00  0.00    +0.000 OA
ATOM   1221  N3  U   B  50      10.232   9.850   8.005  0.00  0.00    +0.000 N 
ATOM   1222  C4  U   B  50      10.621  10.457   9.179  0.00  0.00    +0.000 A 
ATOM   1223  O4  U   B  50      11.812  10.458   9.495  0.00  0.00    +0.000 OA
ATOM   1224  C5  U   B  50       9.552  11.039   9.933  0.00  0.00    +0.000 A 
ATOM   1225  C6  U   B  50       8.297  10.966   9.474  0.00  0.00    +0.000 A 
ATOM   1226  H   U   B  50      10.945   9.440   7.464  0.00  0.00    +0.000 HD
ENDBRANCH 5501218
BRANCH 1391227
ATOM   1227  N1  U   B  12       0.519 -16.859  26.884  0.00  0.00    +0.000 N 
ATOM   1228  C2  U   B  12       1.887 -16.865  27.121  0.00  0.00    +0.000 A 
ATOM   1229  O2  U   B  12       2.685 -17.447  26.404  0.00  0.00    +0.000 OA
ATOM   1230  N3  U   B  12       2.290 -16.162  28.235  0.00  0.00    +0.000 N 
ATOM   1231  C4  U   B  12       1.479 -15.472  29.116  0.00  0.00    +0.000 A 
ATOM   1232  O4  U   B  12       1.989 -14.888  30.074  0.00  0.00    +0.000 OA
ATOM   1233  C5  U   B  12       0.081 -15.518  28.805  0.00  0.00    +0.000 A 
ATOM   1234  C6  U   B  12      -0.339 -16.194  27.727  0.00  0.00    +0.000 A 
ATOM   1235  H   U   B  12       3.256 -16.150  28.423  0.00  0.00    +0.000 HD
ENDBRANCH 1391227
BRANCH 6601236
ATOM   1236  N9  A   B  61      -3.802  -0.582  34.310  0.00  0.00    +0.000 N 
ATOM   1237  C8  A   B  61      -3.606  -1.677  33.508  0.00  0.00    +0.000 A 
ATOM   1238  N7  A   B  61      -4.380  -1.704  32.444  0.00  0.00    +0.000 NA
ATOM   1239  C5  A   B  61      -5.139  -0.543  32.559  0.00  0.00    +0.000 A 
ATOM   1240  C6  A   B  61      -6.146   0.009  31.748  0.00  0.00    +0.000 A 
ATOM   1241  N1  A   B  61      -6.697   1.177  32.142  0.00  0.00    +0.000 NA
ATOM   1242  C2  A   B  61      -6.259   1.745  33.278  0.00  0.00    +0.000 A 
ATOM   1243  N3  A   B  61      -5.321   1.322  34.122  0.00  0.00    +0.000 NA
ATOM   1244  C4  A   B  61      -4.791   0.155  33.698  0.00  0.00    +0.000 A 
BRANCH12401245
ATOM   1245  N6  A   B  61      -6.585  -0.560  30.620  0.00  0.00    +0.000 N 
ATOM   1246  H   A   B  61      -7.294  -0.125  30.093  0.00  0.00    +0.000 HD
ATOM   1247  H   A   B  61      -6.199  -1.413  30.317  0.00  0.00    +0.000 HD
ENDBRANCH12401245
ENDBRANCH 6601236
BRANCH  291248
ATOM   1248  N1  U   B   2     -11.331 -19.393  41.851  0.00  0.00    +0.000 N 
ATOM   1249  C2  U   B   2     -10.875 -20.698  41.821  0.00  0.00    +0.000 A 
ATOM   1250  O2  U   B   2     -10.057 -21.099  41.014  0.00  0.00    +0.000 OA
ATOM   1251  N3  U   B   2     -11.423 -21.525  42.779  0.00  0.00    +0.000 N 
ATOM   1252  C4  U   B   2     -12.345 -21.175  43.743  0.00  0.00    +0.000 A 
ATOM   1253  O4  U   B   2     -12.737 -22.032  44.534  0.00  0.00    +0.000 OA
ATOM   1254  C5  U   B   2     -12.767 -19.809  43.704  0.00  0.00    +0.000 A 
ATOM   1255  C6  U   B   2     -12.260 -18.984  42.780  0.00  0.00    +0.000 A 
ATOM   1256  H   U   B   2     -11.125 -22.463  42.774  0.00  0.00    +0.000 HD
ENDBRANCH  291248
BRANCH 1191257
ATOM   1257  N1  U   B  10       0.097  -8.388  28.419  0.00  0.00    +0.000 N 
ATOM   1258  C2  U   B  10       1.013  -9.075  27.640  0.00  0.00    +0.000 A 
ATOM   1259  O2  U   B  10       0.722  -9.584  26.572  0.00  0.00    +0.000 OA
ATOM   1260  N3  U   B  10       2.292  -9.125  28.154  0.00  0.00    +0.000 N 
ATOM   1261  C4  U   B  10       2.730  -8.583  29.336  0.00  0.00    +0.000 A 
ATOM   1262  O4  U   B  10       3.911  -8.716  29.654  0.00  0.00    +0.000 OA
ATOM   1263  C5  U   B  10       1.716  -7.903  30.091  0.00  0.00    +0.000 A 
ATOM   1264  C6  U   B  10       0.464  -7.829  29.616  0.00  0.00    +0.000 A 
ATOM   1265  H   U   B  10       2.964  -9.601  27.614  0.00  0.00    +0.000 HD
ENDBRANCH 1191257
BRANCH 5601266
ATOM   1266  N1  U   B  51       8.930   5.809   7.943  0.00  0.00    +0.000 N 
ATOM   1267  C2  U   B  51      10.277   5.586   7.686  0.00  0.00    +0.000 A 
ATOM   1268  O2  U   B  51      10.670   4.946   6.730  0.00  0.00    +0.000 OA
ATOM   1269  N3  U   B  51      11.145   6.143   8.595  0.00  0.00    +0.000 N 
ATOM   1270  C4  U   B  51      10.816   6.879   9.713  0.00  0.00    +0.000 A 
ATOM   1271  O4  U   B  51      11.713   7.315  10.439  0.00  0.00    +0.000 OA
ATOM   1272  C5  U   B  51       9.410   7.064   9.913  0.00  0.00    +0.000 A 
ATOM   1273  C6  U   B  51       8.539   6.536   9.042  0.00  0.00    +0.000 A 
ATOM   1274  H   U   B  51      12.105   6.001   8.430  0.00  0.00    +0.000 HD
ENDBRANCH 5601266
BRANCH 5401275
ATOM   1275  N1  U   B  49       8.990  14.741   9.021  0.00  0.00    +0.000 N 
ATOM   1276  C2  U   B  49       9.287  14.039   7.865  0.00  0.00    +0.000 A 
ATOM   1277  O2  U   B  49       8.480  13.867   6.967  0.00  0.00    +0.000 OA
ATOM   1278  N3  U   B  49      10.569  13.544   7.797  0.00  0.00    +0.000 N 
ATOM   1279  C4  U   B  49      11.558  13.675   8.749  0.00  0.00    +0.000 A 
ATOM   1280  O4  U   B  49      12.665  13.171   8.547  0.00  0.00    +0.000 OA
ATOM   1281  C5  U   B  49      11.174  14.409   9.915  0.00  0.00    +0.000 A 
ATOM   1282  C6  U   B  49       9.933  14.904  10.007  0.00  0.00    +0.000 A 
ATOM   1283  H   U   B  49      10.805  13.043   6.983  0.00  0.00    +0.000 HD
ENDBRANCH 5401275
BRANCH 1691284
ATOM   1284  N1  U   B  15       3.631 -21.792  37.082  0.00  0.00    +0.000 N 
ATOM   1285  C2  U   B  15       3.080 -20.625  37.580  0.00  0.00    +0.000 A 
ATOM   1286  O2  U   B  15       3.713 -19.831  38.261  0.00  0.00    +0.000 OA
ATOM   1287  N3  U   B  15       1.765 -20.416  37.253  0.00  0.00    +0.000 N 
ATOM   1288  C4  U   B  15       0.957 -21.237  36.489  0.00  0.00    +0.000 A 
ATOM   1289  O4  U   B  15      -0.210 -20.908  36.280  0.00  0.00    +0.000 OA
ATOM   1290  C5  U   B  15       1.593 -22.422  36.006  0.00  0.00    +0.000 A 
ATOM   1291  C6  U   B  15       2.881 -22.655  36.312  0.00  0.00    +0.000 A 
ATOM   1292  H   U   B  15       1.352 -19.592  37.600  0.00  0.00    +0.000 HD
ENDBRANCH 1691284
BRANCH  991293
ATOM   1293  N1  U   B   8      -6.060   6.108  24.321  0.00  0.00    +0.000 N 
ATOM   1294  C2  U   B   8      -5.213   7.137  23.960  0.00  0.00    +0.000 A 
ATOM   1295  O2  U   B   8      -4.478   7.084  22.988  0.00  0.00    +0.000 OA
ATOM   1296  N3  U   B   8      -5.257   8.233  24.783  0.00  0.00    +0.000 N 
ATOM   1297  C4  U   B   8      -6.051   8.405  25.898  0.00  0.00    +0.000 A 
ATOM   1298  O4  U   B   8      -5.976   9.455  26.531  0.00  0.00    +0.000 OA
ATOM   1299  C5  U   B   8      -6.901   7.293  26.203  0.00  0.00    +0.000 A 
ATOM   1300  C6  U   B   8      -6.873   6.207  25.422  0.00  0.00    +0.000 A 
ATOM   1301  H   U   B   8      -4.656   8.978  24.553  0.00  0.00    +0.000 HD
ENDBRANCH  991293
BRANCH 6001302
ATOM   1302  N9  A   B  55      17.149  -2.427  19.027  0.00  0.00    +0.000 N 
ATOM   1303  C8  A   B  55      16.222  -3.163  18.329  0.00  0.00    +0.000 A 
ATOM   1304  N7  A   B  55      15.027  -2.618  18.304  0.00  0.00    +0.000 NA
ATOM   1305  C5  A   B  55      15.176  -1.448  19.038  0.00  0.00    +0.000 A 
ATOM   1306  C6  A   B  55      14.281  -0.424  19.382  0.00  0.00    +0.000 A 
ATOM   1307  N1  A   B  55      14.750   0.603  20.124  0.00  0.00    +0.000 NA
ATOM   1308  C2  A   B  55      16.037   0.596  20.495  0.00  0.00    +0.000 A 
ATOM   1309  N3  A   B  55      16.980  -0.310  20.230  0.00  0.00    +0.000 NA
ATOM   1310  C4  A   B  55      16.477  -1.319  19.489  0.00  0.00    +0.000 A 
BRANCH13061311
ATOM   1311  N6  A   B  55      12.989  -0.417  19.017  0.00  0.00    +0.000 N 
ATOM   1312  H   A   B  55      12.626  -1.155  18.476  0.00  0.00    +0.000 HD
ATOM   1313  H   A   B  55      12.404   0.327  19.290  0.00  0.00    +0.000 HD
ENDBRANCH13061311
ENDBRANCH 6001302
BRANCH 5701314
ATOM   1314  N1  U   B  52      11.272   1.754   8.533  0.00  0.00    +0.000 N 
ATOM   1315  C2  U   B  52      12.603   2.033   8.814  0.00  0.00    +0.000 A 
ATOM   1316  O2  U   B  52      13.528   1.559   8.180  0.00  0.00    +0.000 OA
ATOM   1317  N3  U   B  52      12.809   2.891   9.871  0.00  0.00    +0.000 N 
ATOM   1318  C4  U   B  52      11.845   3.481  10.660  0.00  0.00    +0.000 A 
ATOM   1319  O4  U   B  52      12.184   4.233  11.577  0.00  0.00    +0.000 OA
ATOM   1320  C5  U   B  52      10.498   3.142  10.310  0.00  0.00    +0.000 A 
ATOM   1321  C6  U   B  52      10.266   2.312   9.285  0.00  0.00    +0.000 A 
ATOM   1322  H   U   B  52      13.745   3.106  10.086  0.00  0.00    +0.000 HD
ENDBRANCH 5701314
BRANCH 3691323
ATOM   1323  N9  A   B  35      13.391  22.203   2.479  0.00  0.00    +0.000 N 
ATOM   1324  C8  A   B  35      13.265  21.510   1.299  0.00  0.00    +0.000 A 
ATOM   1325  N7  A   B  35      14.157  20.559   1.151  0.00  0.00    +0.000 NA
ATOM   1326  C5  A   B  35      14.919  20.631   2.311  0.00  0.00    +0.000 A 
ATOM   1327  C6  A   B  35      16.025  19.891   2.766  0.00  0.00    +0.000 A 
ATOM   1328  N1  A   B  35      16.550  20.218   3.967  0.00  0.00    +0.000 NA
ATOM   1329  C2  A   B  35      16.000  21.223   4.658  0.00  0.00    +0.000 A 
ATOM   1330  N3  A   B  35      14.959  21.989   4.338  0.00  0.00    +0.000 NA
ATOM   1331  C4  A   B  35      14.458  21.637   3.138  0.00  0.00    +0.000 A 
BRANCH13271332
ATOM   1332  N6  A   B  35      16.579  18.886   2.070  0.00  0.00    +0.000 N 
ATOM   1333  H   A   B  35      16.211  18.633   1.193  0.00  0.00    +0.000 HD
ATOM   1334  H   A   B  35      17.354  18.402   2.437  0.00  0.00    +0.000 HD
ENDBRANCH13271332
ENDBRANCH 3691323
BRANCH 5301335
ATOM   1335  N9  A   B  48      12.101  18.109   9.472  0.00  0.00    +0.000 N 
ATOM   1336  C8  A   B  48      13.330  17.630   9.849  0.00  0.00    +0.000 A 
ATOM   1337  N7  A   B  48      13.851  16.784   8.989  0.00  0.00    +0.000 NA
ATOM   1338  C5  A   B  48      12.902  16.699   7.979  0.00  0.00    +0.000 A 
ATOM   1339  C6  A   B  48      12.853  15.971   6.779  0.00  0.00    +0.000 A 
ATOM   1340  N1  A   B  48      11.763  16.113   6.000  0.00  0.00    +0.000 NA
ATOM   1341  C2  A   B  48      10.784  16.930   6.405  0.00  0.00    +0.000 A 
ATOM   1342  N3  A   B  48      10.712  17.673   7.513  0.00  0.00    +0.000 NA
ATOM   1343  C4  A   B  48      11.816  17.509   8.264  0.00  0.00    +0.000 A 
BRANCH13391344
ATOM   1344  N6  A   B  48      13.830  15.145   6.372  0.00  0.00    +0.000 N 
ATOM   1345  H   A   B  48      13.741  14.660   5.520  0.00  0.00    +0.000 HD
ATOM   1346  H   A   B  48      14.635  15.025   6.925  0.00  0.00    +0.000 HD
ENDBRANCH13391344
ENDBRANCH 5301335
BRANCH 4321347
ATOM   1347  N4  C   B  40      30.459  18.604  -7.761  0.00  0.00    +0.000 N 
ATOM   1348  H   C   B  40      30.686  17.916  -8.428  0.00  0.00    +0.000 HD
ATOM   1349  H   C   B  40      30.972  18.666  -6.923  0.00  0.00    +0.000 HD
ENDBRANCH 4321347
BRANCH  281350
ATOM   1350  O2' U   B   2     -12.190 -18.611  38.880  0.00  0.00    +0.000 OA
ATOM   1351  H   U   B   2     -11.387 -18.808  38.373  0.00  0.00    +0.000 HD
ENDBRANCH  281350
BRANCH 5791352
ATOM   1352  O2' A   B  53      16.221  -4.194   9.894  0.00  0.00    +0.000 OA
ATOM   1353  H   A   B  53      15.993  -4.340   8.963  0.00  0.00    +0.000 HD
ENDBRANCH 5791352
BRANCH 5611354
ATOM   1354  OP2 U   B  52       6.320   2.163  10.558  0.00  0.00    +0.000 OA
ATOM   1355  H   U   B  52       7.049   2.793  10.444  0.00  0.00    +0.000 HD
ENDBRANCH 5611354
BRANCH  301356
ATOM   1356  OP2 A   B   3     -10.827 -14.222  37.976  0.00  0.00    +0.000 OA
ATOM   1357  H   A   B   3     -10.782 -13.530  37.298  0.00  0.00    +0.000 HD
ENDBRANCH  301356
BRANCH 5811358
ATOM   1358  OP2 A   B  54      12.510  -5.768  12.603  0.00  0.00    +0.000 OA
ATOM   1359  H   A   B  54      11.739  -6.027  12.075  0.00  0.00    +0.000 HD
ENDBRANCH 5811358
BRANCH 5891360
ATOM   1360  O2' A   B  54      19.385  -4.578  15.222  0.00  0.00    +0.000 OA
ATOM   1361  H   A   B  54      19.633  -4.899  14.341  0.00  0.00    +0.000 HD
ENDBRANCH 5891360
BRANCH 5911362
ATOM   1362  OP1 A   B  55      17.693  -8.610  17.218  0.00  0.00    +0.000 OA
ATOM   1363  H   A   B  55      17.358  -9.263  16.584  0.00  0.00    +0.000 HD
ENDBRANCH 5911362
BRANCH 6591364
ATOM   1364  O2' A   B  61      -3.625   0.572  37.763  0.00  0.00    +0.000 OA
ATOM   1365  H   A   B  61      -2.681   0.467  37.960  0.00  0.00    +0.000 HD
ENDBRANCH 6591364
BRANCH 5991366
ATOM   1366  O2' A   B  55      20.105  -2.908  21.094  0.00  0.00    +0.000 OA
ATOM   1367  H   A   B  55      20.760  -3.189  20.436  0.00  0.00    +0.000 HD
ENDBRANCH 5991366
BRANCH 6511368
ATOM   1368  OP1 A   B  61      -0.554  -5.549  35.348  0.00  0.00    +0.000 OA
ATOM   1369  H   A   B  61      -0.150  -6.148  34.701  0.00  0.00    +0.000 HD
ENDBRANCH 6511368
BRANCH 6011370
ATOM   1370  OP1 A   B  56      19.339  -7.030  23.425  0.00  0.00    +0.000 OA
ATOM   1371  H   A   B  56      19.475  -7.835  22.902  0.00  0.00    +0.000 HD
ENDBRANCH 6011370
BRANCH 6391372
ATOM   1372  O2' A   B  59       2.999   0.007  33.106  0.00  0.00    +0.000 OA
ATOM   1373  H   A   B  59       3.398   0.813  33.469  0.00  0.00    +0.000 HD
ENDBRANCH 6391372
BRANCH 6091374
ATOM   1374  O2' A   B  56      18.222  -0.500  26.440  0.00  0.00    +0.000 OA
ATOM   1375  H   A   B  56      19.116  -0.548  26.066  0.00  0.00    +0.000 HD
ENDBRANCH 6091374
BRANCH 6491376
ATOM   1376  O2' G   B  60      -1.436  -3.626  30.927  0.00  0.00    +0.000 OA
ATOM   1377  H   G   B  60      -1.479  -2.682  31.145  0.00  0.00    +0.000 HD
ENDBRANCH 6491376
BRANCH 6111378
ATOM   1378  OP1 A   B  57      18.255  -4.445  29.222  0.00  0.00    +0.000 OA
ATOM   1379  H   A   B  57      18.799  -5.181  28.900  0.00  0.00    +0.000 HD
ENDBRANCH 6111378
BRANCH 6411380
ATOM   1380  OP1 G   B  60       2.381  -2.518  37.114  0.00  0.00    +0.000 OA
ATOM   1381  H   G   B  60       1.715  -1.827  36.972  0.00  0.00    +0.000 HD
ENDBRANCH 6411380
BRANCH 6191382
ATOM   1382  O2' A   B  57      14.172   1.398  30.639  0.00  0.00    +0.000 OA
ATOM   1383  H   A   B  57      15.100   1.662  30.540  0.00  0.00    +0.000 HD
ENDBRANCH 6191382
BRANCH 6211384
ATOM   1384  OP1 C   B  58      14.714  -2.170  33.915  0.00  0.00    +0.000 OA
ATOM   1385  H   C   B  58      15.546  -2.663  33.845  0.00  0.00    +0.000 HD
ENDBRANCH 6211384
BRANCH 6291386
ATOM   1386  O2' C   B  58       8.716   1.901  33.430  0.00  0.00    +0.000 OA
ATOM   1387  H   C   B  58       9.504   2.442  33.593  0.00  0.00    +0.000 HD
ENDBRANCH 6291386
BRANCH 6311388
ATOM   1388  OP1 A   B  59       9.075  -1.305  37.001  0.00  0.00    +0.000 OA
ATOM   1389  H   A   B  59       8.640  -2.087  37.376  0.00  0.00    +0.000 HD
ENDBRANCH 6311388
BRANCH   11390
ATOM   1390  OP3 C   B   1     -14.544 -18.142  37.396  0.00  0.00    +0.000 OA
ATOM   1391  H   C   B   1     -14.815 -18.776  36.714  0.00  0.00    +0.000 HD
ENDBRANCH   11390
BRANCH 6691392
ATOM   1392  O2' C   B  62      -9.634   2.376  38.138  0.00  0.00    +0.000 OA
ATOM   1393  H   C   B  62      -8.835   2.754  38.537  0.00  0.00    +0.000 HD
ENDBRANCH 6691392
BRANCH 6711394
ATOM   1394  OP1 U   B  63     -11.067  -0.419  41.791  0.00  0.00    +0.000 OA
ATOM   1395  H   U   B  63     -11.336   0.510  41.859  0.00  0.00    +0.000 HD
ENDBRANCH 6711394
BRANCH 6791396
ATOM   1396  O2' U   B  63     -15.420   1.476  36.207  0.00  0.00    +0.000 OA
ATOM   1397  H   U   B  63     -14.982   2.272  36.547  0.00  0.00    +0.000 HD
ENDBRANCH 6791396
BRANCH 6811398
ATOM   1398  OP1 A   B  64     -17.458  -0.217  40.110  0.00  0.00    +0.000 OA
ATOM   1399  H   A   B  64     -18.210  -0.827  40.171  0.00  0.00    +0.000 HD
ENDBRANCH 6811398
BRANCH 6891400
ATOM   1400  O2' A   B  64     -19.598  -1.041  32.817  0.00  0.00    +0.000 OA
ATOM   1401  H   A   B  64     -19.537  -0.155  33.207  0.00  0.00    +0.000 HD
ENDBRANCH 6891400
BRANCH 6911402
ATOM   1402  OP2 C   B  65     -20.864  -3.369  37.081  0.00  0.00    +0.000 OA
ATOM   1403  H   C   B  65     -20.068  -3.756  36.684  0.00  0.00    +0.000 HD
ENDBRANCH 6911402
BRANCH 6991404
ATOM   1404  O2' C   B  65     -22.129  -7.274  31.056  0.00  0.00    +0.000 OA
ATOM   1405  H   C   B  65     -22.368  -6.427  30.648  0.00  0.00    +0.000 HD
ENDBRANCH 6991404
BRANCH 7011406
ATOM   1406  OP2 A   B  66     -23.858  -6.779  35.626  0.00  0.00    +0.000 OA
ATOM   1407  H   A   B  66     -22.938  -7.076  35.549  0.00  0.00    +0.000 HD
ENDBRANCH 7011406
BRANCH 7081408
ATOM   1408  O2' A   B  66     -23.576 -12.660  36.058  0.00  0.00    +0.000 OA
ATOM   1409  H   A   B  66     -23.580 -13.496  35.566  0.00  0.00    +0.000 HD
ENDBRANCH 7081408
BRANCH 6611410
ATOM   1410  OP1 C   B  62      -5.340  -3.058  40.442  0.00  0.00    +0.000 OA
ATOM   1411  H   C   B  62      -4.679  -3.747  40.612  0.00  0.00    +0.000 HD
ENDBRANCH 6611410
BRANCH  201412
ATOM   1412  OP2 U   B   2     -12.496 -14.220  44.267  0.00  0.00    +0.000 OA
ATOM   1413  H   U   B   2     -11.792 -13.691  43.860  0.00  0.00    +0.000 HD
ENDBRANCH  201412
BRANCH  101414
ATOM   1414  O2' C   B   1     -15.759 -11.884  41.988  0.00  0.00    +0.000 OA
ATOM   1415  H   C   B   1     -14.884 -11.613  42.308  0.00  0.00    +0.000 HD
ENDBRANCH  101414
BRANCH 2581416
ATOM   1416  O2' U   B  24       3.676   4.131  25.580  0.00  0.00    +0.000 OA
ATOM   1417  H   U   B  24       2.724   3.978  25.684  0.00  0.00    +0.000 HD
ENDBRANCH 2581416
BRANCH 2081418
ATOM   1418  O2' A   B  19      10.821 -18.462  26.604  0.00  0.00    +0.000 OA
ATOM   1419  H   A   B  19      11.471 -19.029  27.048  0.00  0.00    +0.000 HD
ENDBRANCH 2081418
BRANCH  781420
ATOM   1420  O2' A   B   6     -14.834  -2.538  25.292  0.00  0.00    +0.000 OA
ATOM   1421  H   A   B   6     -15.193  -3.176  24.656  0.00  0.00    +0.000 HD
ENDBRANCH  781420
BRANCH 2101422
ATOM   1422  OP2 A   B  20      12.210 -13.856  27.040  0.00  0.00    +0.000 OA
ATOM   1423  H   A   B  20      12.181 -13.004  26.578  0.00  0.00    +0.000 HD
ENDBRANCH 2101422
BRANCH 2181424
ATOM   1424  O2' A   B  20       7.538 -16.383  21.832  0.00  0.00    +0.000 OA
ATOM   1425  H   A   B  20       8.104 -17.169  21.879  0.00  0.00    +0.000 HD
ENDBRANCH 2181424
BRANCH  701426
ATOM   1426  OP2 A   B   6     -10.945  -8.060  24.201  0.00  0.00    +0.000 OA
ATOM   1427  H   A   B   6     -10.195  -7.554  23.852  0.00  0.00    +0.000 HD
ENDBRANCH  701426
BRANCH 2201428
ATOM   1428  OP2 A   B  21      10.467 -12.474  22.183  0.00  0.00    +0.000 OA
ATOM   1429  H   A   B  21      10.532 -11.548  21.901  0.00  0.00    +0.000 HD
ENDBRANCH 2201428
BRANCH 2281430
ATOM   1430  O2' A   B  21       3.372 -12.271  20.006  0.00  0.00    +0.000 OA
ATOM   1431  H   A   B  21       3.593 -13.148  19.656  0.00  0.00    +0.000 HD
ENDBRANCH 2281430
BRANCH 2301432
ATOM   1432  OP2 C   B  22       7.138  -9.292  19.258  0.00  0.00    +0.000 OA
ATOM   1433  H   C   B  22       7.917  -9.722  18.872  0.00  0.00    +0.000 HD
ENDBRANCH 2301432
BRANCH 2381434
ATOM   1434  O2' C   B  22       0.277  -6.921  20.909  0.00  0.00    +0.000 OA
ATOM   1435  H   C   B  22       0.020  -7.722  20.426  0.00  0.00    +0.000 HD
ENDBRANCH 2381434
BRANCH 2401436
ATOM   1436  OP2 U   B  23       4.134  -4.973  18.700  0.00  0.00    +0.000 OA
ATOM   1437  H   U   B  23       4.483  -5.511  17.972  0.00  0.00    +0.000 HD
ENDBRANCH 2401436
BRANCH 2481438
ATOM   1438  O2' U   B  23      -0.060  -0.989  23.351  0.00  0.00    +0.000 OA
ATOM   1439  H   U   B  23      -0.780  -1.538  23.004  0.00  0.00    +0.000 HD
ENDBRANCH 2481438
BRANCH 2501440
ATOM   1440  OP2 U   B  24       2.954  -0.119  19.548  0.00  0.00    +0.000 OA
ATOM   1441  H   U   B  24       2.651  -0.549  18.733  0.00  0.00    +0.000 HD
ENDBRANCH 2501440
BRANCH 2001442
ATOM   1442  OP2 A   B  19      12.219 -13.732  32.149  0.00  0.00    +0.000 OA
ATOM   1443  H   A   B  19      12.105 -13.087  31.434  0.00  0.00    +0.000 HD
ENDBRANCH 2001442
BRANCH 2601444
ATOM   1444  OP1 U   B  25       3.646   6.703  21.483  0.00  0.00    +0.000 OA
ATOM   1445  H   U   B  25       4.204   7.139  20.821  0.00  0.00    +0.000 HD
ENDBRANCH 2601444
BRANCH 2681446
ATOM   1446  O2' U   B  25       9.798   6.570  25.317  0.00  0.00    +0.000 OA
ATOM   1447  H   U   B  25       9.050   6.792  25.893  0.00  0.00    +0.000 HD
ENDBRANCH 2681446
BRANCH 2701448
ATOM   1448  OP1 U   B  26       9.215   9.845  21.832  0.00  0.00    +0.000 OA
ATOM   1449  H   U   B  26       9.669  10.154  21.033  0.00  0.00    +0.000 HD
ENDBRANCH 2701448
BRANCH 5711450
ATOM   1450  OP2 A   B  53       9.023  -2.501  10.571  0.00  0.00    +0.000 OA
ATOM   1451  H   A   B  53       8.065  -2.395  10.462  0.00  0.00    +0.000 HD
ENDBRANCH 5711450
BRANCH 2801452
ATOM   1452  OP1 U   B  27      15.784  10.660  20.946  0.00  0.00    +0.000 OA
ATOM   1453  H   U   B  27      16.161  10.944  20.098  0.00  0.00    +0.000 HD
ENDBRANCH 2801452
BRANCH 2881454
ATOM   1454  O2' U   B  27      20.438   5.136  20.162  0.00  0.00    +0.000 OA
ATOM   1455  H   U   B  27      20.425   5.404  21.094  0.00  0.00    +0.000 HD
ENDBRANCH 2881454
BRANCH 2901456
ATOM   1456  OP1 U   B  28      21.314   9.518  18.209  0.00  0.00    +0.000 OA
ATOM   1457  H   U   B  28      21.455   9.965  17.360  0.00  0.00    +0.000 HD
ENDBRANCH 2901456
BRANCH 2981458
ATOM   1458  O2' U   B  28      22.774   3.378  14.554  0.00  0.00    +0.000 OA
ATOM   1459  H   U   B  28      23.226   3.372  15.412  0.00  0.00    +0.000 HD
ENDBRANCH 2981458
BRANCH 3001460
ATOM   1460  OP2 A   B  29      21.897   8.039  13.415  0.00  0.00    +0.000 OA
ATOM   1461  H   A   B  29      21.805   8.631  12.652  0.00  0.00    +0.000 HD
ENDBRANCH 3001460
BRANCH 3081462
ATOM   1462  O2' A   B  29      21.627   2.513   8.445  0.00  0.00    +0.000 OA
ATOM   1463  H   A   B  29      22.351   2.151   8.980  0.00  0.00    +0.000 HD
ENDBRANCH 3081462
BRANCH  681464
ATOM   1464  O2' U   B   5     -15.659  -8.678  24.987  0.00  0.00    +0.000 OA
ATOM   1465  H   U   B   5     -15.835  -9.602  24.750  0.00  0.00    +0.000 HD
ENDBRANCH  681464
BRANCH 3101466
ATOM   1466  OP2 A   B  30      22.121   7.317   8.189  0.00  0.00    +0.000 OA
ATOM   1467  H   A   B  30      21.935   8.058   7.591  0.00  0.00    +0.000 HD
ENDBRANCH 3101466
BRANCH 1481468
ATOM   1468  O2' C   B  13       4.246 -23.527  27.854  0.00  0.00    +0.000 OA
ATOM   1469  H   C   B  13       3.990 -23.544  26.919  0.00  0.00    +0.000 HD
ENDBRANCH 1481468
BRANCH  901470
ATOM   1470  OP1 U   B   8      -9.580   4.733  26.450  0.00  0.00    +0.000 OA
ATOM   1471  H   U   B   8      -8.771   5.228  26.245  0.00  0.00    +0.000 HD
ENDBRANCH  901470
BRANCH  981472
ATOM   1472  O2' U   B   8      -4.020   3.721  22.960  0.00  0.00    +0.000 OA
ATOM   1473  H   U   B   8      -4.393   3.562  22.079  0.00  0.00    +0.000 HD
ENDBRANCH  981472
BRANCH 1001474
ATOM   1474  OP2 A   B   9      -7.236   0.132  23.649  0.00  0.00    +0.000 OA
ATOM   1475  H   A   B   9      -7.739   0.499  22.905  0.00  0.00    +0.000 HD
ENDBRANCH 1001474
BRANCH 1081476
ATOM   1476  O2' A   B   9      -2.132  -1.718  28.602  0.00  0.00    +0.000 OA
ATOM   1477  H   A   B   9      -1.450  -1.561  27.930  0.00  0.00    +0.000 HD
ENDBRANCH 1081476
BRANCH  881478
ATOM   1478  O2' C   B   7     -12.380   2.776  28.199  0.00  0.00    +0.000 OA
ATOM   1479  H   C   B   7     -13.219   2.599  27.746  0.00  0.00    +0.000 HD
ENDBRANCH  881478
BRANCH 1101480
ATOM   1480  OP2 U   B  10      -5.884  -3.378  26.527  0.00  0.00    +0.000 OA
ATOM   1481  H   U   B  10      -6.030  -2.907  25.692  0.00  0.00    +0.000 HD
ENDBRANCH 1101480
BRANCH 1181482
ATOM   1482  O2' U   B  10      -2.596  -9.849  29.237  0.00  0.00    +0.000 OA
ATOM   1483  H   U   B  10      -2.799 -10.329  28.419  0.00  0.00    +0.000 HD
ENDBRANCH 1181482
BRANCH 1201484
ATOM   1484  OP2 U   B  11      -5.965  -8.971  29.058  0.00  0.00    +0.000 OA
ATOM   1485  H   U   B  11      -6.400  -8.114  28.926  0.00  0.00    +0.000 HD
ENDBRANCH 1201484
BRANCH 1281486
ATOM   1486  O2' U   B  11      -3.101 -14.547  24.560  0.00  0.00    +0.000 OA
ATOM   1487  H   U   B  11      -3.745 -13.891  24.250  0.00  0.00    +0.000 HD
ENDBRANCH 1281486
BRANCH 1301488
ATOM   1488  OP2 U   B  12      -4.336 -15.777  29.095  0.00  0.00    +0.000 OA
ATOM   1489  H   U   B  12      -3.498 -15.293  29.029  0.00  0.00    +0.000 HD
ENDBRANCH 1301488
BRANCH 1381490
ATOM   1490  O2' U   B  12       0.172 -19.808  24.778  0.00  0.00    +0.000 OA
ATOM   1491  H   U   B  12      -0.405 -19.479  24.071  0.00  0.00    +0.000 HD
ENDBRANCH 1381490
BRANCH 1401492
ATOM   1492  OP2 C   B  13      -2.563 -20.667  28.699  0.00  0.00    +0.000 OA
ATOM   1493  H   C   B  13      -3.495 -20.416  28.599  0.00  0.00    +0.000 HD
ENDBRANCH 1401492
BRANCH 2781494
ATOM   1494  O2' U   B  26      15.581   6.726  23.663  0.00  0.00    +0.000 OA
ATOM   1495  H   U   B  26      15.141   7.082  24.451  0.00  0.00    +0.000 HD
ENDBRANCH 2781494
BRANCH 1501496
ATOM   1496  OP2 A   B  14       0.134 -24.525  30.418  0.00  0.00    +0.000 OA
ATOM   1497  H   A   B  14      -0.626 -24.720  29.848  0.00  0.00    +0.000 HD
ENDBRANCH 1501496
BRANCH 1581498
ATOM   1498  O2' A   B  14       6.992 -24.224  33.459  0.00  0.00    +0.000 OA
ATOM   1499  H   A   B  14       7.227 -24.516  32.564  0.00  0.00    +0.000 HD
ENDBRANCH 1581498
BRANCH  801500
ATOM   1500  OP2 C   B   7     -10.045  -2.652  23.780  0.00  0.00    +0.000 OA
ATOM   1501  H   C   B   7     -10.033  -3.418  23.185  0.00  0.00    +0.000 HD
ENDBRANCH  801500
BRANCH 1601502
ATOM   1502  OP1 U   B  15       4.817 -27.982  35.221  0.00  0.00    +0.000 OA
ATOM   1503  H   U   B  15       4.592 -28.654  34.559  0.00  0.00    +0.000 HD
ENDBRANCH 1601502
BRANCH 1681504
ATOM   1504  O2' U   B  15       6.437 -22.145  39.342  0.00  0.00    +0.000 OA
ATOM   1505  H   U   B  15       7.176 -22.289  38.730  0.00  0.00    +0.000 HD
ENDBRANCH 1681504
BRANCH 1701506
ATOM   1506  OP1 C   B  16       6.758 -25.777  41.571  0.00  0.00    +0.000 OA
ATOM   1507  H   C   B  16       7.625 -25.920  41.160  0.00  0.00    +0.000 HD
ENDBRANCH 1701506
BRANCH 1781508
ATOM   1508  O2' C   B  16      11.760 -21.706  42.430  0.00  0.00    +0.000 OA
ATOM   1509  H   C   B  16      11.355 -22.077  43.230  0.00  0.00    +0.000 HD
ENDBRANCH 1781508
BRANCH 1801510
ATOM   1510  OP1 C   B  17       8.930 -17.884  41.897  0.00  0.00    +0.000 OA
ATOM   1511  H   C   B  17       8.823 -17.096  41.342  0.00  0.00    +0.000 HD
ENDBRANCH 1801510
BRANCH 1881512
ATOM   1512  O2' C   B  17      15.459 -17.737  38.901  0.00  0.00    +0.000 OA
ATOM   1513  H   C   B  17      15.562 -17.967  39.838  0.00  0.00    +0.000 HD
ENDBRANCH 1881512
BRANCH 1901514
ATOM   1514  OP1 G   B  18      13.323 -13.793  39.023  0.00  0.00    +0.000 OA
ATOM   1515  H   G   B  18      12.995 -13.097  38.432  0.00  0.00    +0.000 HD
ENDBRANCH 1901514
BRANCH 1981516
ATOM   1516  O2' G   B  18      12.618 -18.517  33.027  0.00  0.00    +0.000 OA
ATOM   1517  H   G   B  18      13.180 -18.607  33.812  0.00  0.00    +0.000 HD
ENDBRANCH 1981516
BRANCH 4911518
ATOM   1518  OP1 U   B  45      25.121  13.340   3.465  0.00  0.00    +0.000 OA
ATOM   1519  H   U   B  45      25.036  12.420   3.169  0.00  0.00    +0.000 HD
ENDBRANCH 4911518
BRANCH 3901520
ATOM   1520  OP1 U   B  38      26.910  27.864   0.936  0.00  0.00    +0.000 OA
ATOM   1521  H   U   B  38      27.349  28.366   0.232  0.00  0.00    +0.000 HD
ENDBRANCH 3901520
BRANCH 3981522
ATOM   1522  O2' U   B  38      28.199  24.124  -4.346  0.00  0.00    +0.000 OA
ATOM   1523  H   U   B  38      28.692  23.292  -4.420  0.00  0.00    +0.000 HD
ENDBRANCH 3981522
BRANCH 4081524
ATOM   1524  OP2 U   B  39      31.793  24.188  -1.120  0.00  0.00    +0.000 OA
ATOM   1525  H   U   B  39      32.729  24.431  -1.188  0.00  0.00    +0.000 HD
ENDBRANCH 4081524
BRANCH 4161526
ATOM   1526  O2' U   B  39      30.218  28.406  -7.226  0.00  0.00    +0.000 OA
ATOM   1527  H   U   B  39      29.803  28.309  -6.355  0.00  0.00    +0.000 HD
ENDBRANCH 4161526
BRANCH 4181528
ATOM   1528  OP1 C   B  40      30.884  24.810  -9.653  0.00  0.00    +0.000 OA
ATOM   1529  H   C   B  40      30.848  24.701 -10.616  0.00  0.00    +0.000 HD
ENDBRANCH 4181528
BRANCH 3181530
ATOM   1530  O2' A   B  30      17.993   3.204   3.554  0.00  0.00    +0.000 OA
ATOM   1531  H   A   B  30      18.692   2.551   3.718  0.00  0.00    +0.000 HD
ENDBRANCH 3181530
BRANCH 4351532
ATOM   1532  OP2 U   B  41      22.689  25.676  -7.438  0.00  0.00    +0.000 OA
ATOM   1533  H   U   B  41      22.154  26.485  -7.427  0.00  0.00    +0.000 HD
ENDBRANCH 4351532
BRANCH 4431534
ATOM   1534  O2' U   B  41      19.127  21.307 -11.957  0.00  0.00    +0.000 OA
ATOM   1535  H   U   B  41      18.436  21.970 -11.802  0.00  0.00    +0.000 HD
ENDBRANCH 4431534
BRANCH 4451536
ATOM   1536  OP1 U   B  42      18.871  20.496  -7.354  0.00  0.00    +0.000 OA
ATOM   1537  H   U   B  42      18.148  20.133  -7.890  0.00  0.00    +0.000 HD
ENDBRANCH 4451536
BRANCH 4531538
ATOM   1538  O2' U   B  42      21.032  14.574 -10.499  0.00  0.00    +0.000 OA
ATOM   1539  H   U   B  42      20.302  14.887 -11.055  0.00  0.00    +0.000 HD
ENDBRANCH 4531538
BRANCH 4631540
ATOM   1540  OP2 A   B  43      19.875  17.122  -6.257  0.00  0.00    +0.000 OA
ATOM   1541  H   A   B  43      20.635  17.573  -6.657  0.00  0.00    +0.000 HD
ENDBRANCH 4631540
BRANCH 4711542
ATOM   1542  O2' A   B  43      25.332  12.305  -5.028  0.00  0.00    +0.000 OA
ATOM   1543  H   A   B  43      24.907  11.751  -5.702  0.00  0.00    +0.000 HD
ENDBRANCH 4711542
BRANCH  381544
ATOM   1544  O2' A   B   3     -13.770 -18.231  32.374  0.00  0.00    +0.000 OA
ATOM   1545  H   A   B   3     -13.567 -18.952  32.990  0.00  0.00    +0.000 HD
ENDBRANCH  381544
BRANCH 4731546
ATOM   1546  OP1 C   B  44      21.918  12.195  -1.677  0.00  0.00    +0.000 OA
ATOM   1547  H   C   B  44      21.090  11.851  -2.047  0.00  0.00    +0.000 HD
ENDBRANCH 4731546
BRANCH 4811548
ATOM   1548  O2' C   B  44      28.262  15.226   0.260  0.00  0.00    +0.000 OA
ATOM   1549  H   C   B  44      28.452  14.369  -0.154  0.00  0.00    +0.000 HD
ENDBRANCH 4811548
BRANCH 4261550
ATOM   1550  O2' C   B  40      25.255  22.754  -6.750  0.00  0.00    +0.000 OA
ATOM   1551  H   C   B  40      24.408  22.451  -7.113  0.00  0.00    +0.000 HD
ENDBRANCH 4261550
BRANCH 4991552
ATOM   1552  O2' U   B  45      25.489  19.872   5.882  0.00  0.00    +0.000 OA
ATOM   1553  H   U   B  45      26.374  19.731   5.511  0.00  0.00    +0.000 HD
ENDBRANCH 4991552
BRANCH 5011554
ATOM   1554  OP1 U   B  46      25.271  15.793   8.497  0.00  0.00    +0.000 OA
ATOM   1555  H   U   B  46      25.902  15.133   8.168  0.00  0.00    +0.000 HD
ENDBRANCH 5011554
BRANCH 5091556
ATOM   1556  O2' U   B  46      20.623  21.381   9.581  0.00  0.00    +0.000 OA
ATOM   1557  H   U   B  46      21.542  21.691   9.600  0.00  0.00    +0.000 HD
ENDBRANCH 5091556
BRANCH 5111558
ATOM   1558  OP1 U   B  47      20.810  18.002  12.978  0.00  0.00    +0.000 OA
ATOM   1559  H   U   B  47      21.659  17.544  13.080  0.00  0.00    +0.000 HD
ENDBRANCH 5111558
BRANCH 5191560
ATOM   1560  O2' U   B  47      14.694  21.581  11.402  0.00  0.00    +0.000 OA
ATOM   1561  H   U   B  47      15.392  22.214  11.633  0.00  0.00    +0.000 HD
ENDBRANCH 5191560
BRANCH 5211562
ATOM   1562  OP1 A   B  48      14.965  18.657  15.239  0.00  0.00    +0.000 OA
ATOM   1563  H   A   B  48      14.477  19.478  15.409  0.00  0.00    +0.000 HD
ENDBRANCH 5211562
BRANCH 5291564
ATOM   1564  O2' A   B  48       9.006  19.204  11.051  0.00  0.00    +0.000 OA
ATOM   1565  H   A   B  48       9.261  20.074  11.397  0.00  0.00    +0.000 HD
ENDBRANCH 5291564
BRANCH 5311566
ATOM   1566  OP1 U   B  49       8.727  16.736  15.182  0.00  0.00    +0.000 OA
ATOM   1567  H   U   B  49       7.942  17.272  14.986  0.00  0.00    +0.000 HD
ENDBRANCH 5311566
BRANCH 5391568
ATOM   1568  O2' U   B  49       5.350  14.534   9.111  0.00  0.00    +0.000 OA
ATOM   1569  H   U   B  49       5.106  15.448   9.325  0.00  0.00    +0.000 HD
ENDBRANCH 5391568
BRANCH 5411570
ATOM   1570  OP1 U   B  50       4.332  12.377  13.304  0.00  0.00    +0.000 OA
ATOM   1571  H   U   B  50       3.573  12.496  12.712  0.00  0.00    +0.000 HD
ENDBRANCH 5411570
BRANCH 5491572
ATOM   1572  O2' U   B  50       5.006   8.612   7.111  0.00  0.00    +0.000 OA
ATOM   1573  H   U   B  50       4.375   9.342   7.011  0.00  0.00    +0.000 HD
ENDBRANCH 5491572
BRANCH 5511574
ATOM   1574  OP2 U   B  51       5.434   7.433  11.749  0.00  0.00    +0.000 OA
ATOM   1575  H   U   B  51       6.230   7.840  11.374  0.00  0.00    +0.000 HD
ENDBRANCH 5511574
BRANCH 5591576
ATOM   1576  O2' U   B  51       7.433   3.123   6.005  0.00  0.00    +0.000 OA
ATOM   1577  H   U   B  51       6.695   3.579   5.572  0.00  0.00    +0.000 HD
ENDBRANCH 5591576
BRANCH 5691578
ATOM   1578  O2' U   B  52      11.582  -1.355   6.660  0.00  0.00    +0.000 OA
ATOM   1579  H   U   B  52      10.973  -1.200   5.921  0.00  0.00    +0.000 HD
ENDBRANCH 5691578
BRANCH 3601580
ATOM   1580  OP2 A   B  35      10.757  22.370  -1.780  0.00  0.00    +0.000 OA
ATOM   1581  H   A   B  35      10.545  21.796  -2.533  0.00  0.00    +0.000 HD
ENDBRANCH 3601580
BRANCH  581582
ATOM   1582  O2' A   B   4     -14.927 -14.289  27.363  0.00  0.00    +0.000 OA
ATOM   1583  H   A   B   4     -15.089 -15.236  27.494  0.00  0.00    +0.000 HD
ENDBRANCH  581582
BRANCH 3381584
ATOM   1584  O2' A   B  32       8.974  10.131  -0.299  0.00  0.00    +0.000 OA
ATOM   1585  H   A   B  32       8.995   9.221  -0.633  0.00  0.00    +0.000 HD
ENDBRANCH 3381584
BRANCH 3301586
ATOM   1586  OP2 A   B  32      16.341   9.394  -0.251  0.00  0.00    +0.000 OA
ATOM   1587  H   A   B  32      16.371  10.311  -0.567  0.00  0.00    +0.000 HD
ENDBRANCH 3301586
BRANCH 3401588
ATOM   1588  OP2 U   B  33      12.581  12.544  -2.452  0.00  0.00    +0.000 OA
ATOM   1589  H   U   B  33      13.174  11.967  -2.958  0.00  0.00    +0.000 HD
ENDBRANCH 3401588
BRANCH 3481590
ATOM   1590  O2' U   B  33       6.863  16.049   0.660  0.00  0.00    +0.000 OA
ATOM   1591  H   U   B  33       6.346  15.285   0.361  0.00  0.00    +0.000 HD
ENDBRANCH 3481590
BRANCH 3501592
ATOM   1592  OP2 A   B  34      10.130  16.955  -2.833  0.00  0.00    +0.000 OA
ATOM   1593  H   A   B  34      10.155  16.246  -3.495  0.00  0.00    +0.000 HD
ENDBRANCH 3501592
BRANCH 3281594
ATOM   1594  O2' A   B  31      13.231   5.870   0.606  0.00  0.00    +0.000 OA
ATOM   1595  H   A   B  31      13.647   5.009   0.447  0.00  0.00    +0.000 HD
ENDBRANCH 3281594
BRANCH 3581596
ATOM   1596  O2' A   B  34       8.292  22.240   1.992  0.00  0.00    +0.000 OA
ATOM   1597  H   A   B  34       7.391  21.889   1.914  0.00  0.00    +0.000 HD
ENDBRANCH 3581596
BRANCH  501598
ATOM   1598  OP2 A   B   4      -9.919 -15.133  32.720  0.00  0.00    +0.000 OA
ATOM   1599  H   A   B   4      -9.417 -14.485  32.201  0.00  0.00    +0.000 HD
ENDBRANCH  501598
BRANCH 3201600
ATOM   1600  OP2 A   B  31      19.977   7.595   3.241  0.00  0.00    +0.000 OA
ATOM   1601  H   A   B  31      19.833   8.447   2.801  0.00  0.00    +0.000 HD
ENDBRANCH 3201600
BRANCH 3881602
ATOM   1602  O2' A   B  37      25.358  23.443   1.972  0.00  0.00    +0.000 OA
ATOM   1603  H   A   B  37      25.112  23.625   2.892  0.00  0.00    +0.000 HD
ENDBRANCH 3881602
BRANCH 3801604
ATOM   1604  OP1 A   B  37      20.876  29.163   2.216  0.00  0.00    +0.000 OA
ATOM   1605  H   A   B  37      21.473  29.514   1.537  0.00  0.00    +0.000 HD
ENDBRANCH 3801604
BRANCH 3681606
ATOM   1606  O2' A   B  35      12.805  25.463   4.023  0.00  0.00    +0.000 OA
ATOM   1607  H   A   B  35      11.855  25.581   3.865  0.00  0.00    +0.000 HD
ENDBRANCH 3681606
BRANCH  601608
ATOM   1608  OP2 U   B   5     -10.708 -12.869  27.509  0.00  0.00    +0.000 OA
ATOM   1609  H   U   B   5     -10.201 -12.177  27.057  0.00  0.00    +0.000 HD
ENDBRANCH  601608
BRANCH 3701610
ATOM   1610  OP1 U   B  36      14.479  28.639   0.707  0.00  0.00    +0.000 OA
ATOM   1611  H   U   B  36      15.205  29.008   0.180  0.00  0.00    +0.000 HD
ENDBRANCH 3701610
BRANCH 3781612
ATOM   1612  O2' U   B  36      19.672  25.101   4.458  0.00  0.00    +0.000 OA
ATOM   1613  H   U   B  36      18.988  25.430   5.062  0.00  0.00    +0.000 HD
ENDBRANCH 3781612
BRANCH 7071614
ATOM   1614  O3' A   B  66     -25.287 -12.949  33.963  0.00  0.00    +0.000 OA
BRANCH16141615
ATOM   1615  P   A   B  67     -26.619 -13.504  34.550  0.00  0.00    +0.000 P 
ATOM   1616  OP2 A   B  67     -26.490 -14.979  34.605  0.00  0.00    +0.000 OA
BRANCH16151617
ATOM   1617  OP1 A   B  67     -26.971 -12.762  35.791  0.00  0.00    +0.000 OA
ATOM   1618  H   A   B  67     -27.018 -11.813  35.598  0.00  0.00    +0.000 HD
ENDBRANCH16151617
BRANCH16151619
ATOM   1619  O5' A   B  67     -27.701 -13.148  33.434  0.00  0.00    +0.000 OA
BRANCH16191620
ATOM   1620  C5' A   B  67     -28.309 -14.136  32.664  0.00  0.00    +0.000 C 
BRANCH16201621
ATOM   1621  C4' A   B  67     -28.765 -13.618  31.322  0.00  0.00    +0.000 C 
ATOM   1622  O4' A   B  67     -29.864 -12.699  31.517  0.00  0.00    +0.000 OA
ATOM   1623  C3' A   B  67     -27.709 -12.862  30.522  0.00  0.00    +0.000 C 
ATOM   1624  C2' A   B  67     -28.081 -11.403  30.766  0.00  0.00    +0.000 C 
ATOM   1625  C1' A   B  67     -29.604 -11.497  30.829  0.00  0.00    +0.000 C 
BRANCH16251626
ATOM   1626  N9  A   B  67     -30.288 -10.397  31.532  0.00  0.00    +0.000 N 
ATOM   1627  C8  A   B  67     -31.569  -9.973  31.294  0.00  0.00    +0.000 A 
ATOM   1628  N7  A   B  67     -31.950  -8.977  32.059  0.00  0.00    +0.000 NA
ATOM   1629  C5  A   B  67     -30.847  -8.729  32.853  0.00  0.00    +0.000 A 
ATOM   1630  C6  A   B  67     -30.609  -7.795  33.865  0.00  0.00    +0.000 A 
ATOM   1631  N6  A   B  67     -31.515  -6.896  34.272  0.00  0.00    +0.000 N 
ATOM   1632  N1  A   B  67     -29.394  -7.794  34.457  0.00  0.00    +0.000 NA
ATOM   1633  C2  A   B  67     -28.488  -8.693  34.056  0.00  0.00    +0.000 A 
ATOM   1634  N3  A   B  67     -28.594  -9.628  33.119  0.00  0.00    +0.000 NA
ATOM   1635  C4  A   B  67     -29.812  -9.595  32.547  0.00  0.00    +0.000 A 
ATOM   1636  H   A   B  67     -32.408  -6.875  33.858  0.00  0.00    +0.000 HD
ATOM   1637  H   A   B  67     -31.288  -6.257  34.985  0.00  0.00    +0.000 HD
ENDBRANCH16251626
BRANCH16241638
ATOM   1638  O2' A   B  67     -27.681 -10.516  29.742  0.00  0.00    +0.000 OA
ATOM   1639  H   A   B  67     -28.073 -10.796  28.900  0.00  0.00    +0.000 HD
ENDBRANCH16241638
BRANCH16231640
ATOM   1640  O3' A   B  67     -27.866 -13.162  29.125  0.00  0.00    +0.000 OA
BRANCH16401641
ATOM   1641  P   A   B  68     -27.220 -14.498  28.533  0.00  0.00    +0.000 P 
ATOM   1642  OP1 A   B  68     -28.046 -14.961  27.395  0.00  0.00    +0.000 OA
BRANCH16411643
ATOM   1643  OP2 A   B  68     -26.903 -15.435  29.624  0.00  0.00    +0.000 OA
ATOM   1644  H   A   B  68     -26.512 -16.242  29.254  0.00  0.00    +0.000 HD
ENDBRANCH16411643
BRANCH16411645
ATOM   1645  O5' A   B  68     -25.855 -13.933  27.950  0.00  0.00    +0.000 OA
BRANCH16451646
ATOM   1646  C5' A   B  68     -25.795 -12.731  27.197  0.00  0.00    +0.000 C 
BRANCH16461647
ATOM   1647  C4' A   B  68     -25.237 -11.587  28.005  0.00  0.00    +0.000 C 
ATOM   1648  O4' A   B  68     -24.485 -12.105  29.140  0.00  0.00    +0.000 OA
ATOM   1649  C3' A   B  68     -24.261 -10.681  27.283  0.00  0.00    +0.000 C 
ATOM   1650  C2' A   B  68     -23.395 -10.126  28.412  0.00  0.00    +0.000 C 
ATOM   1651  C1' A   B  68     -23.352 -11.306  29.386  0.00  0.00    +0.000 C 
BRANCH16511652
ATOM   1652  N9  A   B  68     -22.165 -12.153  29.200  0.00  0.00    +0.000 N 
ATOM   1653  C8  A   B  68     -21.914 -13.040  28.184  0.00  0.00    +0.000 A 
ATOM   1654  N7  A   B  68     -20.768 -13.666  28.301  0.00  0.00    +0.000 NA
ATOM   1655  C5  A   B  68     -20.230 -13.156  29.476  0.00  0.00    +0.000 A 
ATOM   1656  C6  A   B  68     -19.030 -13.418  30.159  0.00  0.00    +0.000 A 
ATOM   1657  N6  A   B  68     -18.118 -14.290  29.729  0.00  0.00    +0.000 N 
ATOM   1658  N1  A   B  68     -18.794 -12.744  31.300  0.00  0.00    +0.000 NA
ATOM   1659  C2  A   B  68     -19.707 -11.866  31.726  0.00  0.00    +0.000 A 
ATOM   1660  N3  A   B  68     -20.877 -11.535  31.178  0.00  0.00    +0.000 NA
ATOM   1661  C4  A   B  68     -21.079 -12.225  30.039  0.00  0.00    +0.000 A 
ATOM   1662  H   A   B  68     -18.272 -14.793  28.897  0.00  0.00    +0.000 HD
ATOM   1663  H   A   B  68     -17.291 -14.431  30.244  0.00  0.00    +0.000 HD
ENDBRANCH16511652
BRANCH16501664
ATOM   1664  O2' A   B  68     -24.039  -9.039  29.064  0.00  0.00    +0.000 OA
ATOM   1665  H   A   B  68     -24.908  -9.325  29.388  0.00  0.00    +0.000 HD
ENDBRANCH16501664
BRANCH16491666
ATOM   1666  O3' A   B  68     -24.924  -9.665  26.542  0.00  0.00    +0.000 OA
BRANCH16661667
ATOM   1667  P   A   B  69     -24.559  -9.354  25.056  0.00  0.00    +0.000 P 
ATOM   1668  OP2 A   B  69     -24.259 -10.644  24.388  0.00  0.00    +0.000 OA
BRANCH16671669
ATOM   1669  OP1 A   B  69     -25.597  -8.454  24.491  0.00  0.00    +0.000 OA
ATOM   1670  H   A   B  69     -25.382  -8.253  23.567  0.00  0.00    +0.000 HD
ENDBRANCH16671669
BRANCH16671671
ATOM   1671  O5' A   B  69     -23.206  -8.524  25.183  0.00  0.00    +0.000 OA
BRANCH16711672
ATOM   1672  C5' A   B  69     -23.126  -7.370  26.001  0.00  0.00    +0.000 C 
BRANCH16721673
ATOM   1673  C4' A   B  69     -21.710  -7.109  26.440  0.00  0.00    +0.000 C 
ATOM   1674  O4' A   B  69     -21.225  -8.231  27.221  0.00  0.00    +0.000 OA
ATOM   1675  C3' A   B  69     -20.702  -6.975  25.317  0.00  0.00    +0.000 C 
ATOM   1676  C2' A   B  69     -19.394  -7.365  25.994  0.00  0.00    +0.000 C 
ATOM   1677  C1' A   B  69     -19.864  -8.463  26.953  0.00  0.00    +0.000 C 
BRANCH16771678
ATOM   1678  N9  A   B  69     -19.738  -9.811  26.372  0.00  0.00    +0.000 N 
ATOM   1679  C8  A   B  69     -20.557 -10.413  25.454  0.00  0.00    +0.000 A 
ATOM   1680  N7  A   B  69     -20.185 -11.628  25.131  0.00  0.00    +0.000 NA
ATOM   1681  C5  A   B  69     -19.043 -11.840  25.888  0.00  0.00    +0.000 A 
ATOM   1682  C6  A   B  69     -18.172 -12.940  26.004  0.00  0.00    +0.000 A 
ATOM   1683  N1  A   B  69     -17.131 -12.829  26.848  0.00  0.00    +0.000 NA
ATOM   1684  C2  A   B  69     -16.973 -11.690  27.529  0.00  0.00    +0.000 A 
ATOM   1685  N3  A   B  69     -17.723 -10.587  27.507  0.00  0.00    +0.000 NA
ATOM   1686  C4  A   B  69     -18.755 -10.729  26.655  0.00  0.00    +0.000 A 
BRANCH16821687
ATOM   1687  N6  A   B  69     -18.328 -14.078  25.317  0.00  0.00    +0.000 N 
ATOM   1688  H   A   B  69     -19.084 -14.177  24.694  0.00  0.00    +0.000 HD
ATOM   1689  H   A   B  69     -17.687 -14.816  25.434  0.00  0.00    +0.000 HD
ENDBRANCH16821687
ENDBRANCH16771678
BRANCH16761690
ATOM   1690  O2' A   B  69     -18.870  -6.287  26.756  0.00  0.00    +0.000 OA
ATOM   1691  H   A   B  69     -19.534  -5.993  27.399  0.00  0.00    +0.000 HD
ENDBRANCH16761690
BRANCH16751692
ATOM   1692  O3' A   B  69     -20.680  -5.673  24.750  0.00  0.00    +0.000 OA
BRANCH16921693
ATOM   1693  P   A   B  70     -20.726  -5.480  23.182  0.00  0.00    +0.000 P 
ATOM   1694  OP2 A   B  70     -21.724  -6.425  22.624  0.00  0.00    +0.000 OA
BRANCH16931695
ATOM   1695  OP1 A   B  70     -20.843  -4.031  22.901  0.00  0.00    +0.000 OA
ATOM   1696  H   A   B  70     -20.873  -3.889  21.942  0.00  0.00    +0.000 HD
ENDBRANCH16931695
BRANCH16931697
ATOM   1697  O5' A   B  70     -19.281  -5.965  22.715  0.00  0.00    +0.000 OA
BRANCH16971698
ATOM   1698  C5' A   B  70     -18.110  -5.394  23.264  0.00  0.00    +0.000 C 
BRANCH16981699
ATOM   1699  C4' A   B  70     -16.903  -6.257  22.992  0.00  0.00    +0.000 C 
ATOM   1700  O4' A   B  70     -17.045  -7.529  23.669  0.00  0.00    +0.000 OA
ATOM   1701  C3' A   B  70     -16.693  -6.635  21.538  0.00  0.00    +0.000 C 
ATOM   1702  C2' A   B  70     -15.883  -7.917  21.637  0.00  0.00    +0.000 C 
ATOM   1703  C1' A   B  70     -16.486  -8.562  22.886  0.00  0.00    +0.000 C 
BRANCH17031704
ATOM   1704  N9  A   B  70     -17.550  -9.528  22.570  0.00  0.00    +0.000 N 
ATOM   1705  C8  A   B  70     -18.889  -9.283  22.427  0.00  0.00    +0.000 A 
ATOM   1706  N7  A   B  70     -19.591 -10.355  22.150  0.00  0.00    +0.000 NA
ATOM   1707  C5  A   B  70     -18.651 -11.373  22.110  0.00  0.00    +0.000 A 
ATOM   1708  C6  A   B  70     -18.756 -12.755  21.869  0.00  0.00    +0.000 A 
ATOM   1709  N1  A   B  70     -17.627 -13.487  21.901  0.00  0.00    +0.000 NA
ATOM   1710  C2  A   B  70     -16.470 -12.870  22.163  0.00  0.00    +0.000 A 
ATOM   1711  N3  A   B  70     -16.242 -11.579  22.410  0.00  0.00    +0.000 NA
ATOM   1712  C4  A   B  70     -17.388 -10.877  22.367  0.00  0.00    +0.000 A 
BRANCH17081713
ATOM   1713  N6  A   B  70     -19.916 -13.371  21.603  0.00  0.00    +0.000 N 
ATOM   1714  H   A   B  70     -19.932 -14.342  21.442  0.00  0.00    +0.000 HD
ATOM   1715  H   A   B  70     -20.752 -12.852  21.569  0.00  0.00    +0.000 HD
ENDBRANCH17081713
ENDBRANCH17031704
BRANCH17021716
ATOM   1716  O2' A   B  70     -14.512  -7.647  21.873  0.00  0.00    +0.000 OA
ATOM   1717  H   A   B  70     -14.422  -7.108  22.674  0.00  0.00    +0.000 HD
ENDBRANCH17021716
BRANCH17011718
ATOM   1718  O3' A   B  70     -16.047  -5.607  20.808  0.00  0.00    +0.000 OA
BRANCH17181719
ATOM   1719  P   U   B  71     -16.330  -5.403  19.264  0.00  0.00    +0.000 P 
ATOM   1720  OP2 U   B  71     -17.270  -6.446  18.798  0.00  0.00    +0.000 OA
BRANCH17191721
ATOM   1721  OP1 U   B  71     -16.666  -3.972  19.030  0.00  0.00    +0.000 OA
ATOM   1722  H   U   B  71     -16.842  -3.831  18.087  0.00  0.00    +0.000 HD
ENDBRANCH17191721
BRANCH17191723
ATOM   1723  O5' U   B  71     -14.890  -5.695  18.648  0.00  0.00    +0.000 OA
BRANCH17231724
ATOM   1724  C5' U   B  71     -14.758  -6.395  17.425  0.00  0.00    +0.000 C 
BRANCH17241725
ATOM   1725  C4' U   B  71     -13.928  -7.643  17.603  0.00  0.00    +0.000 C 
ATOM   1726  O4' U   B  71     -14.459  -8.436  18.695  0.00  0.00    +0.000 OA
ATOM   1727  C3' U   B  71     -13.937  -8.592  16.420  0.00  0.00    +0.000 C 
ATOM   1728  C2' U   B  71     -13.623  -9.937  17.055  0.00  0.00    +0.000 C 
ATOM   1729  C1' U   B  71     -14.352  -9.810  18.400  0.00  0.00    +0.000 C 
BRANCH17291730
ATOM   1730  N1  U   B  71     -15.720 -10.376  18.359  0.00  0.00    +0.000 N 
ATOM   1731  C2  U   B  71     -15.860 -11.751  18.318  0.00  0.00    +0.000 A 
ATOM   1732  O2  U   B  71     -14.914 -12.522  18.302  0.00  0.00    +0.000 OA
ATOM   1733  N3  U   B  71     -17.158 -12.200  18.288  0.00  0.00    +0.000 N 
ATOM   1734  C4  U   B  71     -18.304 -11.432  18.302  0.00  0.00    +0.000 A 
ATOM   1735  O4  U   B  71     -19.400 -11.982  18.276  0.00  0.00    +0.000 OA
ATOM   1736  C5  U   B  71     -18.077 -10.022  18.351  0.00  0.00    +0.000 A 
ATOM   1737  C6  U   B  71     -16.821  -9.558  18.380  0.00  0.00    +0.000 A 
ATOM   1738  H   U   B  71     -17.284 -13.176  18.253  0.00  0.00    +0.000 HD
ENDBRANCH17291730
BRANCH17281739
ATOM   1739  O2' U   B  71     -12.235 -10.084  17.303  0.00  0.00    +0.000 OA
ATOM   1740  H   U   B  71     -11.926  -9.349  17.856  0.00  0.00    +0.000 HD
ENDBRANCH17281739
BRANCH17271741
ATOM   1741  O3' U   B  71     -12.998  -8.204  15.431  0.00  0.00    +0.000 OA
BRANCH17411742
ATOM   1742  P   C   B  72     -13.459  -7.310  14.222  0.00  0.00    +0.000 P 
ATOM   1743  OP2 C   B  72     -14.938  -7.317  14.151  0.00  0.00    +0.000 OA
BRANCH17421744
ATOM   1744  OP1 C   B  72     -12.739  -6.003  14.308  0.00  0.00    +0.000 OA
ATOM   1745  H   C   B  72     -13.010  -5.435  13.569  0.00  0.00    +0.000 HD
ENDBRANCH17421744
BRANCH17421746
ATOM   1746  O5' C   B  72     -12.887  -8.119  12.974  0.00  0.00    +0.000 OA
BRANCH17461747
ATOM   1747  C5' C   B  72     -12.505  -9.487  13.119  0.00  0.00    +0.000 C 
BRANCH17471748
ATOM   1748  C4' C   B  72     -13.082 -10.319  12.008  0.00  0.00    +0.000 C 
ATOM   1749  O4' C   B  72     -14.160 -11.142  12.525  0.00  0.00    +0.000 OA
ATOM   1750  C3' C   B  72     -13.726  -9.539  10.868  0.00  0.00    +0.000 C 
ATOM   1751  C2' C   B  72     -14.695 -10.555  10.283  0.00  0.00    +0.000 C 
ATOM   1752  C1' C   B  72     -15.172 -11.276  11.547  0.00  0.00    +0.000 C 
BRANCH17521753
ATOM   1753  N1  C   B  72     -16.423 -10.697  12.086  0.00  0.00    +0.000 N 
ATOM   1754  C2  C   B  72     -17.648 -11.114  11.547  0.00  0.00    +0.000 A 
ATOM   1755  O2  C   B  72     -17.658 -11.956  10.639  0.00  0.00    +0.000 OA
ATOM   1756  N3  C   B  72     -18.797 -10.583  12.040  0.00  0.00    +0.000 NA
ATOM   1757  C4  C   B  72     -18.753  -9.677  13.021  0.00  0.00    +0.000 A 
ATOM   1758  N4  C   B  72     -19.910  -9.185  13.470  0.00  0.00    +0.000 N 
ATOM   1759  C5  C   B  72     -17.518  -9.239  13.582  0.00  0.00    +0.000 A 
ATOM   1760  C6  C   B  72     -16.391  -9.771  13.090  0.00  0.00    +0.000 A 
ATOM   1761  H   C   B  72     -20.760  -9.491  13.079  0.00  0.00    +0.000 HD
ATOM   1762  H   C   B  72     -19.913  -8.516  14.192  0.00  0.00    +0.000 HD
ENDBRANCH17521753
BRANCH17511763
ATOM   1763  O2' C   B  72     -14.028 -11.483   9.450  0.00  0.00    +0.000 OA
ATOM   1764  H   C   B  72     -13.317 -11.914   9.950  0.00  0.00    +0.000 HD
ENDBRANCH17511763
BRANCH17501765
ATOM   1765  O3' C   B  72     -12.772  -9.058   9.937  0.00  0.00    +0.000 OA
BRANCH17651766
ATOM   1766  P   U   B  73     -12.789  -7.497   9.544  0.00  0.00    +0.000 P 
ATOM   1767  OP2 U   B  73     -14.203  -7.054   9.468  0.00  0.00    +0.000 OA
BRANCH17661768
ATOM   1768  OP1 U   B  73     -11.842  -6.773  10.449  0.00  0.00    +0.000 OA
ATOM   1769  H   U   B  73     -11.839  -5.829  10.226  0.00  0.00    +0.000 HD
ENDBRANCH17661768
BRANCH17661770
ATOM   1770  O5' U   B  73     -12.177  -7.476   8.069  0.00  0.00    +0.000 OA
BRANCH17701771
ATOM   1771  C5' U   B  73     -12.991  -7.136   6.958  0.00  0.00    +0.000 C 
BRANCH17711772
ATOM   1772  C4' U   B  73     -13.246  -8.336   6.074  0.00  0.00    +0.000 C 
ATOM   1773  O4' U   B  73     -13.742  -9.437   6.878  0.00  0.00    +0.000 OA
ATOM   1774  C3' U   B  73     -14.315  -8.146   5.010  0.00  0.00    +0.000 C 
ATOM   1775  C2' U   B  73     -14.774  -9.573   4.747  0.00  0.00    +0.000 C 
ATOM   1776  C1' U   B  73     -14.705 -10.166   6.156  0.00  0.00    +0.000 C 
BRANCH17761777
ATOM   1777  N1  U   B  73     -15.996 -10.046   6.870  0.00  0.00    +0.000 N 
ATOM   1778  C2  U   B  73     -16.910 -11.072   6.719  0.00  0.00    +0.000 A 
ATOM   1779  O2  U   B  73     -16.702 -12.061   6.039  0.00  0.00    +0.000 OA
ATOM   1780  N3  U   B  73     -18.092 -10.901   7.406  0.00  0.00    +0.000 N 
ATOM   1781  C4  U   B  73     -18.444  -9.834   8.205  0.00  0.00    +0.000 A 
ATOM   1782  O4  U   B  73     -19.538  -9.822   8.757  0.00  0.00    +0.000 OA
ATOM   1783  C5  U   B  73     -17.449  -8.816   8.302  0.00  0.00    +0.000 A 
ATOM   1784  C6  U   B  73     -16.288  -8.953   7.648  0.00  0.00    +0.000 A 
ATOM   1785  H   U   B  73     -18.759 -11.620   7.316  0.00  0.00    +0.000 HD
ENDBRANCH17761777
BRANCH17751786
ATOM   1786  O2' U   B  73     -13.861 -10.272   3.912  0.00  0.00    +0.000 OA
ATOM   1787  H   U   B  73     -12.977 -10.251   4.311  0.00  0.00    +0.000 HD
ENDBRANCH17751786
BRANCH17741788
ATOM   1788  O3' U   B  73     -13.822  -7.492   3.858  0.00  0.00    +0.000 OA
BRANCH17881789
ATOM   1789  P   C   B  74     -14.529  -6.162   3.390  0.00  0.00    +0.000 P 
ATOM   1790  OP2 C   B  74     -15.909  -6.506   2.988  0.00  0.00    +0.000 OA
BRANCH17891791
ATOM   1791  OP1 C   B  74     -14.307  -5.101   4.403  0.00  0.00    +0.000 OA
ATOM   1792  H   C   B  74     -14.742  -4.283   4.115  0.00  0.00    +0.000 HD
ENDBRANCH17891791
BRANCH17891793
ATOM   1793  O5' C   B  74     -13.711  -5.784   2.067  0.00  0.00    +0.000 OA
BRANCH17931794
ATOM   1794  C5' C   B  74     -12.280  -5.944   2.043  0.00  0.00    +0.000 C 
BRANCH17941795
ATOM   1795  C4' C   B  74     -11.885  -6.881   0.927  0.00  0.00    +0.000 C 
ATOM   1796  O4' C   B  74     -12.484  -8.171   1.169  0.00  0.00    +0.000 OA
ATOM   1797  C3' C   B  74     -12.335  -6.436  -0.448  0.00  0.00    +0.000 C 
ATOM   1798  C2' C   B  74     -12.996  -7.650  -1.100  0.00  0.00    +0.000 C 
ATOM   1799  C1' C   B  74     -12.870  -8.763  -0.052  0.00  0.00    +0.000 C 
BRANCH17991800
ATOM   1800  N1  C   B  74     -14.113  -9.511   0.189  0.00  0.00    +0.000 N 
ATOM   1801  C2  C   B  74     -14.345 -10.682  -0.545  0.00  0.00    +0.000 A 
ATOM   1802  O2  C   B  74     -13.504 -11.043  -1.379  0.00  0.00    +0.000 OA
ATOM   1803  N3  C   B  74     -15.482 -11.391  -0.320  0.00  0.00    +0.000 NA
ATOM   1804  C4  C   B  74     -16.367 -10.971   0.587  0.00  0.00    +0.000 A 
ATOM   1805  N4  C   B  74     -17.466 -11.704   0.770  0.00  0.00    +0.000 N 
ATOM   1806  C5  C   B  74     -16.160  -9.784   1.342  0.00  0.00    +0.000 A 
ATOM   1807  C6  C   B  74     -15.035  -9.091   1.115  0.00  0.00    +0.000 A 
ATOM   1808  H   C   B  74     -17.603 -12.525   0.244  0.00  0.00    +0.000 HD
ATOM   1809  H   C   B  74     -18.140 -11.424   1.431  0.00  0.00    +0.000 HD
ENDBRANCH17991800
BRANCH17981810
ATOM   1810  O2' C   B  74     -12.394  -8.048  -2.299  0.00  0.00    +0.000 OA
ATOM   1811  H   C   B  74     -11.466  -8.276  -2.135  0.00  0.00    +0.000 HD
ENDBRANCH17981810
BRANCH17971812
ATOM   1812  O3' C   B  74     -11.262  -5.930  -1.236  0.00  0.00    +0.000 OA
BRANCH18121813
ATOM   1813  P   C   B  75      -9.781  -5.919  -0.556  0.00  0.00    +0.000 P 
ATOM   1814  OP2 C   B  75      -9.256  -4.526  -0.645  0.00  0.00    +0.000 OA
BRANCH18131815
ATOM   1815  OP1 C   B  75      -9.752  -6.631   0.742  0.00  0.00    +0.000 OA
ATOM   1816  H   C   B  75     -10.126  -7.519   0.632  0.00  0.00    +0.000 HD
ENDBRANCH18131815
BRANCH18131817
ATOM   1817  O5' C   B  75      -8.959  -6.803  -1.598  0.00  0.00    +0.000 OA
BRANCH18171818
ATOM   1818  C5' C   B  75      -9.024  -6.513  -2.976  0.00  0.00    +0.000 C 
BRANCH18181819
ATOM   1819  C4' C   B  75      -7.870  -7.120  -3.723  0.00  0.00    +0.000 C 
ATOM   1820  O4' C   B  75      -6.638  -6.535  -3.245  0.00  0.00    +0.000 OA
ATOM   1821  C3' C   B  75      -7.711  -8.624  -3.565  0.00  0.00    +0.000 C 
ATOM   1822  C2' C   B  75      -6.618  -8.750  -2.519  0.00  0.00    +0.000 C 
ATOM   1823  C1' C   B  75      -5.748  -7.554  -2.852  0.00  0.00    +0.000 C 
BRANCH18231824
ATOM   1824  N1  C   B  75      -4.924  -7.067  -1.733  0.00  0.00    +0.000 N 
ATOM   1825  C2  C   B  75      -3.532  -7.181  -1.821  0.00  0.00    +0.000 A 
ATOM   1826  O2  C   B  75      -3.035  -7.692  -2.830  0.00  0.00    +0.000 OA
ATOM   1827  N3  C   B  75      -2.764  -6.730  -0.798  0.00  0.00    +0.000 NA
ATOM   1828  C4  C   B  75      -3.342  -6.178   0.270  0.00  0.00    +0.000 A 
ATOM   1829  N4  C   B  75      -2.545  -5.746   1.250  0.00  0.00    +0.000 N 
ATOM   1830  C5  C   B  75      -4.756  -6.054   0.384  0.00  0.00    +0.000 A 
ATOM   1831  C6  C   B  75      -5.502  -6.500  -0.632  0.00  0.00    +0.000 A 
ATOM   1832  H   C   B  75      -1.568  -5.835   1.165  0.00  0.00    +0.000 HD
ATOM   1833  H   C   B  75      -2.934  -5.339   2.058  0.00  0.00    +0.000 HD
ENDBRANCH18231824
BRANCH18221834
ATOM   1834  O2' C   B  75      -5.883  -9.946  -2.559  0.00  0.00    +0.000 OA
ATOM   1835  H   C   B  75      -5.465 -10.040  -3.429  0.00  0.00    +0.000 HD
ENDBRANCH18221834
BRANCH18211836
ATOM   1836  O3' C   B  75      -7.260  -9.182  -4.788  0.00  0.00    +0.000 OA
BRANCH18361837
ATOM   1837  P   A   B  76      -8.140 -10.199  -5.604  0.00  0.00    +0.000 P 
ATOM   1838  OP1 A   B  76      -7.737 -10.068  -7.024  0.00  0.00    +0.000 OA
BRANCH18371839
ATOM   1839  OP2 A   B  76      -9.570 -10.051  -5.228  0.00  0.00    +0.000 OA
ATOM   1840  H   A   B  76     -10.105 -10.681  -5.736  0.00  0.00    +0.000 HD
ENDBRANCH18371839
BRANCH18371841
ATOM   1841  O5' A   B  76      -7.619 -11.606  -5.082  0.00  0.00    +0.000 OA
BRANCH18411842
ATOM   1842  C5' A   B  76      -6.267 -11.976  -5.250  0.00  0.00    +0.000 C 
BRANCH18421843
ATOM   1843  C4' A   B  76      -6.039 -13.389  -4.792  0.00  0.00    +0.000 C 
ATOM   1844  O4' A   B  76      -6.185 -13.461  -3.355  0.00  0.00    +0.000 OA
ATOM   1845  C3' A   B  76      -7.036 -14.403  -5.315  0.00  0.00    +0.000 C 
ATOM   1846  C2' A   B  76      -6.959 -15.502  -4.270  0.00  0.00    +0.000 C 
ATOM   1847  C1' A   B  76      -6.780 -14.684  -2.994  0.00  0.00    +0.000 C 
BRANCH18471848
ATOM   1848  N9  A   B  76      -8.064 -14.393  -2.336  0.00  0.00    +0.000 N 
ATOM   1849  C8  A   B  76      -8.808 -13.247  -2.424  0.00  0.00    +0.000 A 
ATOM   1850  N7  A   B  76      -9.916 -13.285  -1.726  0.00  0.00    +0.000 NA
ATOM   1851  C5  A   B  76      -9.902 -14.539  -1.140  0.00  0.00    +0.000 A 
ATOM   1852  C6  A   B  76     -10.796 -15.192  -0.277  0.00  0.00    +0.000 A 
ATOM   1853  N6  A   B  76     -11.930 -14.641   0.163  0.00  0.00    +0.000 N 
ATOM   1854  N1  A   B  76     -10.476 -16.443   0.124  0.00  0.00    +0.000 NA
ATOM   1855  C2  A   B  76      -9.335 -16.995  -0.315  0.00  0.00    +0.000 A 
ATOM   1856  N3  A   B  76      -8.421 -16.474  -1.128  0.00  0.00    +0.000 NA
ATOM   1857  C4  A   B  76      -8.768 -15.231  -1.508  0.00  0.00    +0.000 A 
ATOM   1858  H   A   B  76     -12.177 -13.731  -0.120  0.00  0.00    +0.000 HD
ATOM   1859  H   A   B  76     -12.519 -15.145   0.770  0.00  0.00    +0.000 HD
ENDBRANCH18471848
BRANCH18451860
ATOM   1860  O3' A   B  76      -6.732 -14.834  -6.627  0.00  0.00    +0.000 OA
ATOM   1861  H   A   B  76      -5.838 -15.210  -6.645  0.00  0.00    +0.000 HD
ENDBRANCH18451860
BRANCH18461862
ATOM   1862  O2' A   B  76      -5.823 -16.322  -4.455  0.00  0.00    +0.000 OA
ATOM   1863  H   A   B  76      -5.023 -15.773  -4.449  0.00  0.00    +0.000 HD
ENDBRANCH18461862
ENDBRANCH18421843
ENDBRANCH18411842
ENDBRANCH18371841
ENDBRANCH18361837
ENDBRANCH18211836
ENDBRANCH18181819
ENDBRANCH18171818
ENDBRANCH18131817
ENDBRANCH18121813
ENDBRANCH17971812
ENDBRANCH17941795
ENDBRANCH17931794
ENDBRANCH17891793
ENDBRANCH17881789
ENDBRANCH17741788
ENDBRANCH17711772
ENDBRANCH17701771
ENDBRANCH17661770
ENDBRANCH17651766
ENDBRANCH17501765
ENDBRANCH17471748
ENDBRANCH17461747
ENDBRANCH17421746
ENDBRANCH17411742
ENDBRANCH17271741
ENDBRANCH17241725
ENDBRANCH17231724
ENDBRANCH17191723
ENDBRANCH17181719
ENDBRANCH17011718
ENDBRANCH16981699
ENDBRANCH16971698
ENDBRANCH16931697
ENDBRANCH16921693
ENDBRANCH16751692
ENDBRANCH16721673
ENDBRANCH16711672
ENDBRANCH16671671
ENDBRANCH16661667
ENDBRANCH16491666
ENDBRANCH16461647
ENDBRANCH16451646
ENDBRANCH16411645
ENDBRANCH16401641
ENDBRANCH16231640
ENDBRANCH16201621
ENDBRANCH16191620
ENDBRANCH16151619
ENDBRANCH16141615
ENDBRANCH 7071614
TORSDOF 284
