REMARK  Name = /storage/kiran-stuff/aaRS/phase2/energy_scoring/vina_182jobs/deep_domain_thr_THR/ligand.h.pdb
REMARK  6 active torsions:
REMARK  status: ('A' for Active; 'I' for Inactive)
REMARK    1  A    between atoms: N_1  and  CA_2
REMARK    2  A    between atoms: CA_2  and  C_3
REMARK    3  A    between atoms: CA_2  and  CB_5
REMARK    4  A    between atoms: C_3  and  O_4
REMARK    5  A    between atoms: CB_5  and  OG1_6
REMARK    6  A    between atoms: CB_5  and  CG2_7
REMARK                            x       y       z     vdW  Elec       q    Type
REMARK                         _______ _______ _______ _____ _____    ______ ____
ROOT
ATOM      1  CA  THR C   1     -17.223 -17.825  11.207  0.00  0.00    +0.000 C 
ENDROOT
BRANCH   1   2
ATOM      2  N   THR C   1     -18.552 -17.660  10.608  0.00  0.00    +0.000 NA
ATOM      3  H   THR C   1     -18.704 -18.389   9.911  0.00  0.00    +0.000 HD
ATOM      4  H   THR C   1     -18.613 -16.746  10.162  0.00  0.00    +0.000 HD
ENDBRANCH   1   2
BRANCH   1   5
ATOM      5  C   THR C   1     -16.978 -16.747  12.248  0.00  0.00    +0.000 C 
ATOM      6  OXT THR C   1     -15.852 -16.510  12.656  0.00  0.00    +0.000 OA
BRANCH   5   7
ATOM      7  O   THR C   1     -17.914 -16.103  12.680  0.00  0.00    +0.000 OA
ATOM      8  H   THR C   1     -18.782 -16.276  12.374  0.00  0.00    +0.000 HD
ENDBRANCH   5   7
ENDBRANCH   1   5
BRANCH   1   9
ATOM      9  CB  THR C   1     -16.185 -17.819  10.107  0.00  0.00    +0.000 C 
ATOM     10  CG2 THR C   1     -16.747 -17.324   8.810  0.00  0.00    +0.000 C 
BRANCH   9  11
ATOM     11  OG1 THR C   1     -15.718 -19.161   9.953  0.00  0.00    +0.000 OA
ATOM     12  H   THR C   1     -16.461 -19.737   9.713  0.00  0.00    +0.000 HD
ENDBRANCH   9  11
ENDBRANCH   1   9
TORSDOF 5
