REMARK  Name = /storage/kiran-stuff/aaRS/phase2/energy_scoring/vina_182jobs/anc_thrrs_cat_PRO_PRO/ligand.h.pdb
REMARK  2 active torsions:
REMARK  status: ('A' for Active; 'I' for Inactive)
REMARK    1  A    between atoms: CA_2  and  C_3
REMARK    2  A    between atoms: C_3  and  O_4
REMARK                            x       y       z     vdW  Elec       q    Type
REMARK                         _______ _______ _______ _____ _____    ______ ____
ROOT
ATOM      1  N   PRO B   1      -2.944   2.355   5.067  0.00  0.00    +0.000 NA
ATOM      2  CA  PRO B   1      -3.438   1.451   6.099  0.00  0.00    +0.000 C 
ATOM      3  CB  PRO B   1      -2.207   0.841   6.712  0.00  0.00    +0.000 C 
ATOM      4  CG  PRO B   1      -1.073   1.199   5.876  0.00  0.00    +0.000 C 
ATOM      5  CD  PRO B   1      -1.567   2.069   4.807  0.00  0.00    +0.000 C 
ATOM      6  H   PRO B   1      -3.485   2.226   4.212  0.00  0.00    +0.000 HD
ENDROOT
BRANCH   2   7
ATOM      7  C   PRO B   1      -4.279   2.154   7.161  0.00  0.00    +0.000 C 
ATOM      8  OXT PRO B   1      -4.638   3.317   6.963  0.00  0.00    +0.000 OA
BRANCH   7   9
ATOM      9  O   PRO B   1      -4.563   1.575   8.213  0.00  0.00    +0.000 OA
ATOM     10  H   PRO B   1      -4.285   0.691   8.352  0.00  0.00    +0.000 HD
ENDBRANCH   7   9
ENDBRANCH   2   7
TORSDOF 2
