REMARK  Name = /storage/kiran-stuff/aaRS/phase2/energy_scoring/vina_182jobs/anc_thrrs_cat_PRO_PRO/ligand.h.pdb
REMARK  2 active torsions:
REMARK  status: ('A' for Active; 'I' for Inactive)
REMARK    1  A    between atoms: CA_2  and  C_3
REMARK    2  A    between atoms: C_3  and  O_4
REMARK                            x       y       z     vdW  Elec       q    Type
REMARK                         _______ _______ _______ _____ _____    ______ ____
ROOT
ATOM      1  N   PRO B   1      -3.285   2.462   5.278  0.00  0.00    +0.000 NA
ATOM      2  CA  PRO B   1      -3.157   1.065   5.677  0.00  0.00    +0.000 C 
ATOM      3  CB  PRO B   1      -1.689   0.860   5.932  0.00  0.00    +0.000 C 
ATOM      4  CG  PRO B   1      -0.987   2.035   5.443  0.00  0.00    +0.000 C 
ATOM      5  CD  PRO B   1      -1.992   2.983   4.959  0.00  0.00    +0.000 C 
ATOM      6  H   PRO B   1      -3.890   2.529   4.460  0.00  0.00    +0.000 HD
ENDROOT
BRANCH   2   7
ATOM      7  C   PRO B   1      -3.975   0.717   6.917  0.00  0.00    +0.000 C 
ATOM      8  OXT PRO B   1      -4.781   1.543   7.350  0.00  0.00    +0.000 OA
BRANCH   7   9
ATOM      9  O   PRO B   1      -3.804  -0.361   7.493  0.00  0.00    +0.000 OA
ATOM     10  H   PRO B   1      -3.188  -0.981   7.154  0.00  0.00    +0.000 HD
ENDBRANCH   7   9
ENDBRANCH   2   7
TORSDOF 2
