REMARK  Name = /storage/kiran-stuff/aaRS/phase2/energy_scoring/vina_182jobs/deep_domain_pro_PRO/ligand.h.pdb
REMARK  2 active torsions:
REMARK  status: ('A' for Active; 'I' for Inactive)
REMARK    1  A    between atoms: CA_2  and  C_3
REMARK    2  A    between atoms: C_3  and  OXT_8
REMARK                            x       y       z     vdW  Elec       q    Type
REMARK                         _______ _______ _______ _____ _____    ______ ____
ROOT
ATOM      1  N   PRO C   1     -13.228   6.084  -7.901  0.00  0.00    +0.000 NA
ATOM      2  CA  PRO C   1     -12.006   5.593  -7.277  0.00  0.00    +0.000 C 
ATOM      3  CB  PRO C   1     -12.418   5.318  -5.884  0.00  0.00    +0.000 C 
ATOM      4  CG  PRO C   1     -13.392   6.360  -5.617  0.00  0.00    +0.000 C 
ATOM      5  CD  PRO C   1     -13.941   6.775  -6.907  0.00  0.00    +0.000 C 
ATOM      6  H   PRO C   1     -13.782   5.303  -8.252  0.00  0.00    +0.000 HD
ENDROOT
BRANCH   2   7
ATOM      7  C   PRO C   1     -11.453   4.409  -8.012  0.00  0.00    +0.000 C 
ATOM      8  O   PRO C   1     -10.768   4.590  -9.005  0.00  0.00    +0.000 OA
BRANCH   7   9
ATOM      9  OXT PRO C   1     -11.727   3.276  -7.649  0.00  0.00    +0.000 OA
ATOM     10  H   PRO C   1     -12.254   3.143  -6.885  0.00  0.00    +0.000 HD
ENDBRANCH   7   9
ENDBRANCH   2   7
TORSDOF 2
