REMARK  Name = /storage/kiran-stuff/aaRS/phase2/energy_scoring/vina_182jobs/deep_domain_pro_PRO/ligand.h.pdb
REMARK  362 active torsions:
REMARK  status: ('A' for Active; 'I' for Inactive)
REMARK    1  A    between atoms: OP3_1  and  P_2
REMARK    2  A    between atoms: P_2  and  OP2_4
REMARK    3  A    between atoms: P_2  and  O5'_5
REMARK    4  A    between atoms: O5'_5  and  C5'_6
REMARK    5  A    between atoms: C5'_6  and  C4'_7
REMARK    6  A    between atoms: C3'_9  and  O3'_10
REMARK    7  A    between atoms: O3'_10  and  P_22
REMARK    8  A    between atoms: C2'_11  and  O2'_12
REMARK    9  A    between atoms: C1'_13  and  N1_14
REMARK   10  A    between atoms: P_22  and  OP1_23
REMARK   11  A    between atoms: P_22  and  O5'_25
REMARK   12  A    between atoms: O5'_25  and  C5'_26
REMARK   13  A    between atoms: C5'_26  and  C4'_27
REMARK   14  A    between atoms: C3'_29  and  O3'_30
REMARK   15  A    between atoms: O3'_30  and  P_42
REMARK   16  A    between atoms: C2'_31  and  O2'_32
REMARK   17  A    between atoms: C1'_33  and  N1_34
REMARK   18  A    between atoms: P_42  and  OP1_43
REMARK   19  A    between atoms: P_42  and  O5'_45
REMARK   20  A    between atoms: O5'_45  and  C5'_46
REMARK   21  A    between atoms: C5'_46  and  C4'_47
REMARK   22  A    between atoms: C3'_49  and  O3'_50
REMARK   23  A    between atoms: O3'_50  and  P_64
REMARK   24  A    between atoms: C2'_51  and  O2'_52
REMARK   25  A    between atoms: C1'_53  and  N9_54
REMARK   26  A    between atoms: C6_58  and  N6_59
REMARK   27  A    between atoms: P_64  and  OP1_65
REMARK   28  A    between atoms: P_64  and  O5'_67
REMARK   29  A    between atoms: O5'_67  and  C5'_68
REMARK   30  A    between atoms: C5'_68  and  C4'_69
REMARK   31  A    between atoms: C3'_71  and  O3'_72
REMARK   32  A    between atoms: O3'_72  and  P_86
REMARK   33  A    between atoms: C2'_73  and  O2'_74
REMARK   34  A    between atoms: C1'_75  and  N9_76
REMARK   35  A    between atoms: C6_80  and  N6_81
REMARK   36  A    between atoms: P_86  and  OP1_87
REMARK   37  A    between atoms: P_86  and  O5'_89
REMARK   38  A    between atoms: O5'_89  and  C5'_90
REMARK   39  A    between atoms: C5'_90  and  C4'_91
REMARK   40  A    between atoms: C3'_93  and  O3'_94
REMARK   41  A    between atoms: O3'_94  and  P_106
REMARK   42  A    between atoms: C2'_95  and  O2'_96
REMARK   43  A    between atoms: C1'_97  and  N1_98
REMARK   44  A    between atoms: P_106  and  OP1_107
REMARK   45  A    between atoms: P_106  and  O5'_109
REMARK   46  A    between atoms: O5'_109  and  C5'_110
REMARK   47  A    between atoms: C5'_110  and  C4'_111
REMARK   48  A    between atoms: C3'_113  and  O3'_114
REMARK   49  A    between atoms: O3'_114  and  P_128
REMARK   50  A    between atoms: C2'_115  and  O2'_116
REMARK   51  A    between atoms: C1'_117  and  N9_118
REMARK   52  A    between atoms: C6_122  and  N6_123
REMARK   53  A    between atoms: P_128  and  OP1_129
REMARK   54  A    between atoms: P_128  and  O5'_131
REMARK   55  A    between atoms: O5'_131  and  C5'_132
REMARK   56  A    between atoms: C5'_132  and  C4'_133
REMARK   57  A    between atoms: C3'_135  and  O3'_136
REMARK   58  A    between atoms: O3'_136  and  P_148
REMARK   59  A    between atoms: C2'_137  and  O2'_138
REMARK   60  A    between atoms: C1'_139  and  N1_140
REMARK   61  A    between atoms: P_148  and  OP2_150
REMARK   62  A    between atoms: P_148  and  O5'_151
REMARK   63  A    between atoms: O5'_151  and  C5'_152
REMARK   64  A    between atoms: C5'_152  and  C4'_153
REMARK   65  A    between atoms: C3'_155  and  O3'_156
REMARK   66  A    between atoms: O3'_156  and  P_168
REMARK   67  A    between atoms: C2'_157  and  O2'_158
REMARK   68  A    between atoms: C1'_159  and  N1_160
REMARK   69  A    between atoms: P_168  and  OP2_170
REMARK   70  A    between atoms: P_168  and  O5'_171
REMARK   71  A    between atoms: O5'_171  and  C5'_172
REMARK   72  A    between atoms: C5'_172  and  C4'_173
REMARK   73  A    between atoms: C2'_177  and  O2'_178
REMARK   74  A    between atoms: C6_184  and  N6_185
REMARK   75  A    between atoms: P_190  and  OP2_192
REMARK   76  A    between atoms: C2'_199  and  O2'_200
REMARK   77  A    between atoms: C1'_201  and  N1_202
REMARK   78  A    between atoms: P_210  and  OP2_212
REMARK   79  A    between atoms: C2'_219  and  O2'_220
REMARK   80  A    between atoms: C1'_221  and  N1_222
REMARK   81  A    between atoms: P_230  and  OP2_232
REMARK   82  A    between atoms: C2'_239  and  O2'_240
REMARK   83  A    between atoms: C1'_241  and  N1_242
REMARK   84  A    between atoms: P_250  and  OP1_251
REMARK   85  A    between atoms: C2'_259  and  O2'_260
REMARK   86  A    between atoms: C1'_261  and  N1_262
REMARK   87  A    between atoms: P_270  and  OP1_271
REMARK   88  A    between atoms: C2'_279  and  O2'_280
REMARK   89  A    between atoms: C1'_281  and  N9_282
REMARK   90  A    between atoms: C6_286  and  N6_287
REMARK   91  A    between atoms: P_292  and  OP2_294
REMARK   92  A    between atoms: C2'_301  and  O2'_302
REMARK   93  A    between atoms: C1'_303  and  N1_304
REMARK   94  A    between atoms: P_312  and  OP2_314
REMARK   95  A    between atoms: C2'_321  and  O2'_322
REMARK   96  A    between atoms: C1'_323  and  N1_324
REMARK   97  A    between atoms: P_332  and  OP2_334
REMARK   98  A    between atoms: C2'_341  and  O2'_342
REMARK   99  A    between atoms: C1'_343  and  N1_344
REMARK  100  A    between atoms: P_352  and  OP1_353
REMARK  101  A    between atoms: C2'_361  and  O2'_362
REMARK  102  A    between atoms: C1'_363  and  N9_364
REMARK  103  A    between atoms: P_375  and  OP1_376
REMARK  104  A    between atoms: C2'_384  and  O2'_385
REMARK  105  A    between atoms: C1'_386  and  N9_387
REMARK  106  A    between atoms: C6_391  and  N6_392
REMARK  107  A    between atoms: P_397  and  OP1_398
REMARK  108  A    between atoms: C2'_406  and  O2'_407
REMARK  109  A    between atoms: C1'_408  and  N9_409
REMARK  110  A    between atoms: C6_413  and  N6_414
REMARK  111  A    between atoms: P_419  and  OP1_420
REMARK  112  A    between atoms: C2'_428  and  O2'_429
REMARK  113  A    between atoms: C1'_430  and  N9_431
REMARK  114  A    between atoms: C6_435  and  N6_436
REMARK  115  A    between atoms: P_441  and  OP1_442
REMARK  116  A    between atoms: C2'_450  and  O2'_451
REMARK  117  A    between atoms: C1'_452  and  N1_453
REMARK  118  A    between atoms: P_461  and  OP1_462
REMARK  119  A    between atoms: C2'_470  and  O2'_471
REMARK  120  A    between atoms: C1'_472  and  N1_473
REMARK  121  A    between atoms: P_481  and  OP2_483
REMARK  122  A    between atoms: C2'_490  and  O2'_491
REMARK  123  A    between atoms: C1'_492  and  N1_493
REMARK  124  A    between atoms: P_501  and  OP2_503
REMARK  125  A    between atoms: C2'_510  and  O2'_511
REMARK  126  A    between atoms: C1'_512  and  N1_513
REMARK  127  A    between atoms: P_521  and  OP1_522
REMARK  128  A    between atoms: C2'_530  and  O2'_531
REMARK  129  A    between atoms: C1'_532  and  N1_533
REMARK  130  A    between atoms: P_541  and  OP1_542
REMARK  131  A    between atoms: C2'_550  and  O2'_551
REMARK  132  A    between atoms: C1'_552  and  N1_553
REMARK  133  A    between atoms: P_561  and  OP1_562
REMARK  134  A    between atoms: C2'_570  and  O2'_571
REMARK  135  A    between atoms: C1'_572  and  N1_573
REMARK  136  A    between atoms: P_581  and  OP1_582
REMARK  137  A    between atoms: C2'_590  and  O2'_591
REMARK  138  A    between atoms: C1'_592  and  N9_593
REMARK  139  A    between atoms: C6_597  and  N6_598
REMARK  140  A    between atoms: P_603  and  OP1_604
REMARK  141  A    between atoms: C2'_612  and  O2'_613
REMARK  142  A    between atoms: C1'_614  and  N9_615
REMARK  143  A    between atoms: C6_619  and  N6_620
REMARK  144  A    between atoms: P_625  and  OP1_626
REMARK  145  A    between atoms: C2'_634  and  O2'_635
REMARK  146  A    between atoms: C1'_636  and  N9_637
REMARK  147  A    between atoms: C6_641  and  N6_642
REMARK  148  A    between atoms: P_647  and  OP1_648
REMARK  149  A    between atoms: C2'_656  and  O2'_657
REMARK  150  A    between atoms: C1'_658  and  N9_659
REMARK  151  A    between atoms: C6_663  and  N6_664
REMARK  152  A    between atoms: P_669  and  OP1_670
REMARK  153  A    between atoms: C2'_678  and  O2'_679
REMARK  154  A    between atoms: C1'_680  and  N1_681
REMARK  155  A    between atoms: P_689  and  OP1_690
REMARK  156  A    between atoms: C2'_698  and  O2'_699
REMARK  157  A    between atoms: C1'_700  and  N9_701
REMARK  158  A    between atoms: C6_705  and  N6_706
REMARK  159  A    between atoms: P_711  and  OP1_712
REMARK  160  A    between atoms: C2'_720  and  O2'_721
REMARK  161  A    between atoms: C1'_722  and  N9_723
REMARK  162  A    between atoms: C6_727  and  N6_728
REMARK  163  A    between atoms: P_733  and  OP1_734
REMARK  164  A    between atoms: C2'_742  and  O2'_743
REMARK  165  A    between atoms: C1'_744  and  N1_745
REMARK  166  A    between atoms: P_753  and  OP1_754
REMARK  167  A    between atoms: C2'_762  and  O2'_763
REMARK  168  A    between atoms: C1'_764  and  N9_765
REMARK  169  A    between atoms: C6_769  and  N6_770
REMARK  170  A    between atoms: P_775  and  OP1_776
REMARK  171  A    between atoms: C2'_784  and  O2'_785
REMARK  172  A    between atoms: C1'_786  and  N1_787
REMARK  173  A    between atoms: P_795  and  OP2_797
REMARK  174  A    between atoms: C2'_804  and  O2'_805
REMARK  175  A    between atoms: C1'_806  and  N1_807
REMARK  176  A    between atoms: P_815  and  OP2_817
REMARK  177  A    between atoms: C2'_824  and  O2'_825
REMARK  178  A    between atoms: C1'_826  and  N1_827
REMARK  179  A    between atoms: P_835  and  OP2_837
REMARK  180  A    between atoms: C2'_844  and  O2'_845
REMARK  181  A    between atoms: C1'_846  and  N1_847
REMARK  182  A    between atoms: P_855  and  OP2_857
REMARK  183  A    between atoms: C2'_864  and  O2'_865
REMARK  184  A    between atoms: C1'_866  and  N1_867
REMARK  185  A    between atoms: P_875  and  OP2_877
REMARK  186  A    between atoms: C2'_884  and  O2'_885
REMARK  187  A    between atoms: C1'_886  and  N9_887
REMARK  188  A    between atoms: P_897  and  OP2_899
REMARK  189  A    between atoms: C2'_906  and  O2'_907
REMARK  190  A    between atoms: C1'_908  and  N1_909
REMARK  191  A    between atoms: P_917  and  OP2_919
REMARK  192  A    between atoms: C2'_926  and  O2'_927
REMARK  193  A    between atoms: C1'_928  and  N1_929
REMARK  194  A    between atoms: P_937  and  OP2_939
REMARK  195  A    between atoms: C2'_946  and  O2'_947
REMARK  196  A    between atoms: C1'_948  and  N1_949
REMARK  197  A    between atoms: P_957  and  OP2_959
REMARK  198  A    between atoms: C2'_966  and  O2'_967
REMARK  199  A    between atoms: C1'_968  and  N1_969
REMARK  200  A    between atoms: P_977  and  OP2_979
REMARK  201  A    between atoms: C2'_986  and  O2'_987
REMARK  202  A    between atoms: C1'_988  and  N9_989
REMARK  203  A    between atoms: P_999  and  OP2_1001
REMARK  204  A    between atoms: C2'_1008  and  O2'_1009
REMARK  205  A    between atoms: C1'_1010  and  N1_1011
REMARK  206  A    between atoms: P_1019  and  OP2_1021
REMARK  207  A    between atoms: C2'_1028  and  O2'_1029
REMARK  208  A    between atoms: C1'_1030  and  N1_1031
REMARK  209  A    between atoms: P_1039  and  OP2_1041
REMARK  210  A    between atoms: C2'_1048  and  O2'_1049
REMARK  211  A    between atoms: C1'_1050  and  N1_1051
REMARK  212  A    between atoms: P_1059  and  OP2_1061
REMARK  213  A    between atoms: C2'_1068  and  O2'_1069
REMARK  214  A    between atoms: C1'_1070  and  N1_1071
REMARK  215  A    between atoms: P_1079  and  OP1_1080
REMARK  216  A    between atoms: C2'_1088  and  O2'_1089
REMARK  217  A    between atoms: C1'_1090  and  N9_1091
REMARK  218  A    between atoms: C6_1095  and  N6_1096
REMARK  219  A    between atoms: P_1101  and  OP1_1102
REMARK  220  A    between atoms: C2'_1110  and  O2'_1111
REMARK  221  A    between atoms: C1'_1112  and  N9_1113
REMARK  222  A    between atoms: C6_1117  and  N6_1118
REMARK  223  A    between atoms: P_1123  and  OP1_1124
REMARK  224  A    between atoms: C2'_1132  and  O2'_1133
REMARK  225  A    between atoms: C1'_1134  and  N9_1135
REMARK  226  A    between atoms: C6_1139  and  N6_1140
REMARK  227  A    between atoms: P_1145  and  OP2_1147
REMARK  228  A    between atoms: C2'_1154  and  O2'_1155
REMARK  229  A    between atoms: C1'_1156  and  N9_1157
REMARK  230  A    between atoms: C6_1161  and  N6_1162
REMARK  231  A    between atoms: P_1167  and  OP2_1169
REMARK  232  A    between atoms: C2'_1176  and  O2'_1177
REMARK  233  A    between atoms: C1'_1178  and  N9_1179
REMARK  234  A    between atoms: P_1189  and  OP2_1191
REMARK  235  A    between atoms: C2'_1198  and  O2'_1199
REMARK  236  A    between atoms: C1'_1200  and  N1_1201
REMARK  237  A    between atoms: P_1209  and  OP1_1210
REMARK  238  A    between atoms: C2'_1218  and  O2'_1219
REMARK  239  A    between atoms: C1'_1220  and  N9_1221
REMARK  240  A    between atoms: P_1231  and  OP2_1233
REMARK  241  A    between atoms: C2'_1240  and  O2'_1241
REMARK  242  A    between atoms: C1'_1242  and  N9_1243
REMARK  243  A    between atoms: P_1254  and  OP1_1255
REMARK  244  A    between atoms: C2'_1263  and  O2'_1264
REMARK  245  A    between atoms: P_1276  and  OP2_1278
REMARK  246  A    between atoms: C3'_1283  and  O3'_1284
REMARK  247  A    between atoms: O3'_1284  and  P_1296
REMARK  248  A    between atoms: C2'_1285  and  O2'_1286
REMARK  249  A    between atoms: P_1296  and  OP2_1298
REMARK  250  A    between atoms: P_1296  and  O5'_1299
REMARK  251  A    between atoms: O5'_1299  and  C5'_1300
REMARK  252  A    between atoms: C5'_1300  and  C4'_1301
REMARK  253  A    between atoms: C3'_1303  and  O3'_1304
REMARK  254  A    between atoms: O3'_1304  and  P_1316
REMARK  255  A    between atoms: C2'_1305  and  O2'_1306
REMARK  256  A    between atoms: C1'_1307  and  N1_1308
REMARK  257  A    between atoms: P_1316  and  OP2_1318
REMARK  258  A    between atoms: P_1316  and  O5'_1319
REMARK  259  A    between atoms: O5'_1319  and  C5'_1320
REMARK  260  A    between atoms: C5'_1320  and  C4'_1321
REMARK  261  A    between atoms: C3'_1323  and  O3'_1324
REMARK  262  A    between atoms: O3'_1324  and  P_1338
REMARK  263  A    between atoms: C2'_1325  and  O2'_1326
REMARK  264  A    between atoms: C1'_1327  and  N9_1328
REMARK  265  A    between atoms: P_1338  and  OP2_1340
REMARK  266  A    between atoms: P_1338  and  O5'_1341
REMARK  267  A    between atoms: O5'_1341  and  C5'_1342
REMARK  268  A    between atoms: C5'_1342  and  C4'_1343
REMARK  269  A    between atoms: C3'_1345  and  O3'_1346
REMARK  270  A    between atoms: O3'_1346  and  P_1358
REMARK  271  A    between atoms: C2'_1347  and  O2'_1348
REMARK  272  A    between atoms: C1'_1349  and  N1_1350
REMARK  273  A    between atoms: P_1358  and  OP2_1360
REMARK  274  A    between atoms: P_1358  and  O5'_1361
REMARK  275  A    between atoms: O5'_1361  and  C5'_1362
REMARK  276  A    between atoms: C5'_1362  and  C4'_1363
REMARK  277  A    between atoms: C3'_1365  and  O3'_1366
REMARK  278  A    between atoms: O3'_1366  and  P_1380
REMARK  279  A    between atoms: C2'_1367  and  O2'_1368
REMARK  280  A    between atoms: C1'_1369  and  N9_1370
REMARK  281  A    between atoms: P_1380  and  OP2_1382
REMARK  282  A    between atoms: P_1380  and  O5'_1383
REMARK  283  A    between atoms: O5'_1383  and  C5'_1384
REMARK  284  A    between atoms: C5'_1384  and  C4'_1385
REMARK  285  A    between atoms: C3'_1387  and  O3'_1388
REMARK  286  A    between atoms: O3'_1388  and  P_1402
REMARK  287  A    between atoms: C2'_1389  and  O2'_1390
REMARK  288  A    between atoms: C1'_1391  and  N9_1392
REMARK  289  A    between atoms: C6_1396  and  N6_1397
REMARK  290  A    between atoms: P_1402  and  OP2_1404
REMARK  291  A    between atoms: P_1402  and  O5'_1405
REMARK  292  A    between atoms: O5'_1405  and  C5'_1406
REMARK  293  A    between atoms: C5'_1406  and  C4'_1407
REMARK  294  A    between atoms: C3'_1409  and  O3'_1410
REMARK  295  A    between atoms: O3'_1410  and  P_1424
REMARK  296  A    between atoms: C2'_1411  and  O2'_1412
REMARK  297  A    between atoms: C1'_1413  and  N9_1414
REMARK  298  A    between atoms: P_1424  and  OP2_1426
REMARK  299  A    between atoms: P_1424  and  O5'_1427
REMARK  300  A    between atoms: O5'_1427  and  C5'_1428
REMARK  301  A    between atoms: C5'_1428  and  C4'_1429
REMARK  302  A    between atoms: C3'_1431  and  O3'_1432
REMARK  303  A    between atoms: O3'_1432  and  P_1446
REMARK  304  A    between atoms: C2'_1433  and  O2'_1434
REMARK  305  A    between atoms: C1'_1435  and  N9_1436
REMARK  306  A    between atoms: P_1446  and  OP2_1448
REMARK  307  A    between atoms: P_1446  and  O5'_1449
REMARK  308  A    between atoms: O5'_1449  and  C5'_1450
REMARK  309  A    between atoms: C5'_1450  and  C4'_1451
REMARK  310  A    between atoms: C3'_1453  and  O3'_1454
REMARK  311  A    between atoms: O3'_1454  and  P_1468
REMARK  312  A    between atoms: C2'_1455  and  O2'_1456
REMARK  313  A    between atoms: C1'_1457  and  N9_1458
REMARK  314  A    between atoms: C6_1462  and  N6_1463
REMARK  315  A    between atoms: P_1468  and  OP1_1469
REMARK  316  A    between atoms: P_1468  and  O5'_1471
REMARK  317  A    between atoms: O5'_1471  and  C5'_1472
REMARK  318  A    between atoms: C5'_1472  and  C4'_1473
REMARK  319  A    between atoms: C3'_1475  and  O3'_1476
REMARK  320  A    between atoms: O3'_1476  and  P_1488
REMARK  321  A    between atoms: C2'_1477  and  O2'_1478
REMARK  322  A    between atoms: C1'_1479  and  N1_1480
REMARK  323  A    between atoms: P_1488  and  OP1_1489
REMARK  324  A    between atoms: P_1488  and  O5'_1491
REMARK  325  A    between atoms: O5'_1491  and  C5'_1492
REMARK  326  A    between atoms: C5'_1492  and  C4'_1493
REMARK  327  A    between atoms: C3'_1495  and  O3'_1496
REMARK  328  A    between atoms: O3'_1496  and  P_1508
REMARK  329  A    between atoms: C2'_1497  and  O2'_1498
REMARK  330  A    between atoms: C1'_1499  and  N1_1500
REMARK  331  A    between atoms: P_1508  and  OP1_1509
REMARK  332  A    between atoms: P_1508  and  O5'_1511
REMARK  333  A    between atoms: O5'_1511  and  C5'_1512
REMARK  334  A    between atoms: C5'_1512  and  C4'_1513
REMARK  335  A    between atoms: C3'_1515  and  O3'_1516
REMARK  336  A    between atoms: O3'_1516  and  P_1528
REMARK  337  A    between atoms: C2'_1517  and  O2'_1518
REMARK  338  A    between atoms: C1'_1519  and  N1_1520
REMARK  339  A    between atoms: P_1528  and  OP1_1529
REMARK  340  A    between atoms: P_1528  and  O5'_1531
REMARK  341  A    between atoms: O5'_1531  and  C5'_1532
REMARK  342  A    between atoms: C5'_1532  and  C4'_1533
REMARK  343  A    between atoms: C3'_1535  and  O3'_1536
REMARK  344  A    between atoms: O3'_1536  and  P_1548
REMARK  345  A    between atoms: C2'_1537  and  O2'_1538
REMARK  346  A    between atoms: C1'_1539  and  N1_1540
REMARK  347  A    between atoms: P_1548  and  OP2_1550
REMARK  348  A    between atoms: P_1548  and  O5'_1551
REMARK  349  A    between atoms: O5'_1551  and  C5'_1552
REMARK  350  A    between atoms: C5'_1552  and  C4'_1553
REMARK  351  A    between atoms: C3'_1555  and  O3'_1556
REMARK  352  A    between atoms: O3'_1556  and  P_1568
REMARK  353  A    between atoms: C2'_1557  and  O2'_1558
REMARK  354  A    between atoms: C1'_1559  and  N1_1560
REMARK  355  A    between atoms: P_1568  and  OP1_1569
REMARK  356  A    between atoms: P_1568  and  O5'_1571
REMARK  357  A    between atoms: O5'_1571  and  C5'_1572
REMARK  358  A    between atoms: C5'_1572  and  C4'_1573
REMARK  359  A    between atoms: C3'_1575  and  O3'_1576
REMARK  360  A    between atoms: C2'_1577  and  O2'_1578
REMARK  361  A    between atoms: C1'_1579  and  N9_1580
REMARK  362  A    between atoms: C6_1584  and  N6_1585
REMARK                            x       y       z     vdW  Elec       q    Type
REMARK                         _______ _______ _______ _____ _____    ______ ____
ROOT
ATOM      1  C4' A   B   9      18.017  -4.821 -26.316  0.00  0.00    +0.000 C 
ATOM      2  O4' A   B   9      19.386  -4.942 -26.787  0.00  0.00    +0.000 OA
ATOM      3  C3' A   B   9      17.603  -3.421 -26.752  0.00  0.00    +0.000 C 
ATOM      4  O3' A   B   9      16.510  -2.916 -26.020  0.00  0.00    +0.000 OA
ATOM      5  C2' A   B   9      18.885  -2.626 -26.538  0.00  0.00    +0.000 C 
ATOM      6  C1' A   B   9      19.951  -3.650 -26.936  0.00  0.00    +0.000 C 
ATOM      7  N9  A   B   9      20.399  -3.479 -28.336  0.00  0.00    +0.000 N 
ATOM      8  C8  A   B   9      19.657  -3.549 -29.483  0.00  0.00    +0.000 C 
ATOM      9  N7  A   B   9      20.354  -3.342 -30.576  0.00  0.00    +0.000 N 
ATOM     10  C5  A   B   9      21.640  -3.119 -30.110  0.00  0.00    +0.000 C 
ATOM     11  C6  A   B   9      22.853  -2.843 -30.770  0.00  0.00    +0.000 C 
ATOM     12  N1  A   B   9      23.956  -2.673 -30.012  0.00  0.00    +0.000 N 
ATOM     13  C2  A   B   9      23.841  -2.778 -28.678  0.00  0.00    +0.000 C 
ATOM     14  N3  A   B   9      22.757  -3.038 -27.945  0.00  0.00    +0.000 NA
ATOM     15  C4  A   B   9      21.679  -3.198 -28.731  0.00  0.00    +0.000 C 
ATOM     16  P   U   B  10      15.641  -1.719 -26.628  0.00  0.00    +0.000 P 
ATOM     17  OP1 U   B  10      14.644  -2.277 -27.578  0.00  0.00    +0.000 OA
ATOM     18  O5' U   B  10      14.854  -1.230 -25.326  0.00  0.00    +0.000 OA
ATOM     19  C5' U   B  10      13.671  -0.452 -25.418  0.00  0.00    +0.000 C 
ATOM     20  C4' U   B  10      12.812  -0.634 -24.188  0.00  0.00    +0.000 C 
ATOM     21  O4' U   B  10      13.488  -0.074 -23.032  0.00  0.00    +0.000 OA
ATOM     22  C3' U   B  10      11.475   0.083 -24.212  0.00  0.00    +0.000 C 
ATOM     23  O3' U   B  10      10.480  -0.656 -24.917  0.00  0.00    +0.000 OA
ATOM     24  C2' U   B  10      11.156   0.271 -22.736  0.00  0.00    +0.000 C 
ATOM     25  C1' U   B  10      12.558   0.532 -22.165  0.00  0.00    +0.000 C 
ATOM     26  P   U   B  11       9.385   0.101 -25.815  0.00  0.00    +0.000 P 
ATOM     27  OP1 U   B  11       8.666  -0.911 -26.631  0.00  0.00    +0.000 OA
ATOM     28  O5' U   B  11       8.363   0.681 -24.745  0.00  0.00    +0.000 OA
ATOM     29  C5' U   B  11       7.682  -0.170 -23.839  0.00  0.00    +0.000 C 
ATOM     30  C4' U   B  11       6.846   0.612 -22.857  0.00  0.00    +0.000 C 
ATOM     31  O4' U   B  11       7.703   1.306 -21.915  0.00  0.00    +0.000 OA
ATOM     32  C3' U   B  11       5.994   1.712 -23.460  0.00  0.00    +0.000 C 
ATOM     33  O3' U   B  11       4.791   1.219 -24.028  0.00  0.00    +0.000 OA
ATOM     34  C2' U   B  11       5.777   2.652 -22.282  0.00  0.00    +0.000 C 
ATOM     35  C1' U   B  11       7.122   2.544 -21.556  0.00  0.00    +0.000 C 
ATOM     36  P   U   B  12       3.944   2.155 -25.016  0.00  0.00    +0.000 P 
ATOM     37  OP1 U   B  12       3.040   1.288 -25.813  0.00  0.00    +0.000 OA
ATOM     38  O5' U   B  12       3.058   3.010 -24.008  0.00  0.00    +0.000 OA
ATOM     39  C5' U   B  12       2.432   4.207 -24.436  0.00  0.00    +0.000 C 
ATOM     40  C4' U   B  12       2.287   5.192 -23.299  0.00  0.00    +0.000 C 
ATOM     41  O4' U   B  12       3.525   5.268 -22.542  0.00  0.00    +0.000 OA
ATOM     42  C3' U   B  12       2.021   6.632 -23.717  0.00  0.00    +0.000 C 
ATOM     43  O3' U   B  12       0.652   6.863 -24.026  0.00  0.00    +0.000 OA
ATOM     44  C2' U   B  12       2.526   7.428 -22.527  0.00  0.00    +0.000 C 
ATOM     45  C1' U   B  12       3.749   6.590 -22.113  0.00  0.00    +0.000 C 
ATOM     46  P   C   B  13       0.272   7.575 -25.415  0.00  0.00    +0.000 P 
ATOM     47  OP2 C   B  13       1.262   7.167 -26.445  0.00  0.00    +0.000 OA
ATOM     48  O5' C   B  13       0.489   9.115 -25.095  0.00  0.00    +0.000 OA
ATOM     49  C5' C   B  13      -0.203   9.742 -24.031  0.00  0.00    +0.000 C 
ATOM     50  C4' C   B  13       0.404  11.079 -23.680  0.00  0.00    +0.000 C 
ATOM     51  O4' C   B  13       1.724  10.888 -23.109  0.00  0.00    +0.000 OA
ATOM     52  C3' C   B  13       0.643  12.024 -24.844  0.00  0.00    +0.000 C 
ATOM     53  O3' C   B  13      -0.531  12.703 -25.265  0.00  0.00    +0.000 OA
ATOM     54  C2' C   B  13       1.720  12.950 -24.295  0.00  0.00    +0.000 C 
ATOM     55  C1' C   B  13       2.564  11.969 -23.472  0.00  0.00    +0.000 C 
ATOM     56  P   A   B  14      -0.733  13.047 -26.823  0.00  0.00    +0.000 P 
ATOM     57  OP2 A   B  14      -0.348  11.852 -27.617  0.00  0.00    +0.000 OA
ATOM     58  O5' A   B  14       0.352  14.179 -27.093  0.00  0.00    +0.000 OA
ATOM     59  C5' A   B  14       0.295  15.415 -26.400  0.00  0.00    +0.000 C 
ATOM     60  C4' A   B  14       1.547  16.229 -26.625  0.00  0.00    +0.000 C 
ATOM     61  O4' A   B  14       2.699  15.520 -26.109  0.00  0.00    +0.000 OA
ATOM     62  C3' A   B  14       1.913  16.501 -28.075  0.00  0.00    +0.000 C 
ATOM     63  O3' A   B  14       1.168  17.563 -28.646  0.00  0.00    +0.000 OA
ATOM     64  C2' A   B  14       3.409  16.782 -27.992  0.00  0.00    +0.000 C 
ATOM     65  C1' A   B  14       3.836  15.789 -26.906  0.00  0.00    +0.000 C 
ATOM     66  P   U   B  15       0.346  17.353 -30.012  0.00  0.00    +0.000 P 
ATOM     67  OP1 U   B  15       0.126  18.669 -30.631  0.00  0.00    +0.000 OA
ATOM     68  O5' U   B  15       1.337  16.526 -30.928  0.00  0.00    +0.000 OA
ATOM     69  C5' U   B  15       2.497  17.107 -31.516  0.00  0.00    +0.000 C 
ATOM     70  C4' U   B  15       2.868  16.393 -32.783  0.00  0.00    +0.000 C 
ATOM     71  O4' U   B  15       1.860  16.663 -33.789  0.00  0.00    +0.000 OA
ATOM     72  C3' U   B  15       4.208  16.806 -33.400  0.00  0.00    +0.000 C 
ATOM     73  O3' U   B  15       4.804  15.669 -34.030  0.00  0.00    +0.000 OA
ATOM     74  C2' U   B  15       3.796  17.807 -34.474  0.00  0.00    +0.000 C 
ATOM     75  C1' U   B  15       2.460  17.228 -34.936  0.00  0.00    +0.000 C 
ATOM     76  P   C   B  16       6.107  14.995 -33.386  0.00  0.00    +0.000 P 
ATOM     77  OP1 C   B  16       6.187  13.564 -33.763  0.00  0.00    +0.000 OA
ATOM     78  O5' C   B  16       7.285  15.767 -34.129  0.00  0.00    +0.000 OA
ATOM     79  C5' C   B  16       8.516  15.976 -33.477  0.00  0.00    +0.000 C 
ATOM     80  C4' C   B  16       9.140  17.281 -33.894  0.00  0.00    +0.000 C 
ATOM     81  O4' C   B  16       8.121  18.319 -33.935  0.00  0.00    +0.000 OA
ATOM     82  C3' C   B  16      10.192  17.833 -32.947  0.00  0.00    +0.000 C 
ATOM     83  O3' C   B  16      11.470  17.246 -33.155  0.00  0.00    +0.000 OA
ATOM     84  C2' C   B  16      10.160  19.330 -33.234  0.00  0.00    +0.000 C 
ATOM     85  C1' C   B  16       8.664  19.548 -33.521  0.00  0.00    +0.000 C 
ATOM     86  P   C   B  17      12.225  16.508 -31.979  0.00  0.00    +0.000 P 
ATOM     87  OP1 C   B  17      13.445  15.876 -32.532  0.00  0.00    +0.000 OA
ATOM     88  O5' C   B  17      12.667  17.721 -31.049  0.00  0.00    +0.000 OA
ATOM     89  C5' C   B  17      13.516  18.748 -31.541  0.00  0.00    +0.000 C 
ATOM     90  C4' C   B  17      13.556  19.927 -30.603  0.00  0.00    +0.000 C 
ATOM     91  O4' C   B  17      12.260  20.578 -30.578  0.00  0.00    +0.000 OA
ATOM     92  C3' C   B  17      13.831  19.595 -29.147  0.00  0.00    +0.000 C 
ATOM     93  O3' C   B  17      15.212  19.415 -28.881  0.00  0.00    +0.000 OA
ATOM     94  C2' C   B  17      13.218  20.780 -28.415  0.00  0.00    +0.000 C 
ATOM     95  C1' C   B  17      11.993  21.072 -29.284  0.00  0.00    +0.000 C 
ATOM     96  P   G   B  18      15.664  18.382 -27.776  0.00  0.00    +0.000 P 
ATOM     97  OP2 G   B  18      14.911  17.118 -27.960  0.00  0.00    +0.000 OA
ATOM     98  O5' G   B  18      15.134  19.074 -26.443  0.00  0.00    +0.000 OA
ATOM     99  C5' G   B  18      14.665  18.294 -25.361  0.00  0.00    +0.000 C 
ATOM    100  C4' G   B  18      13.273  18.703 -24.962  0.00  0.00    +0.000 C 
ATOM    101  O4' G   B  18      12.337  18.343 -26.008  0.00  0.00    +0.000 OA
ATOM    102  C3' G   B  18      12.717  18.028 -23.717  0.00  0.00    +0.000 C 
ATOM    103  O3' G   B  18      13.172  18.644 -22.524  0.00  0.00    +0.000 OA
ATOM    104  C2' G   B  18      11.212  18.128 -23.927  0.00  0.00    +0.000 C 
ATOM    105  C1' G   B  18      11.103  17.940 -25.447  0.00  0.00    +0.000 C 
ATOM    106  P   A   B  19      13.534  17.768 -21.255  0.00  0.00    +0.000 P 
ATOM    107  OP2 A   B  19      14.188  16.525 -21.730  0.00  0.00    +0.000 OA
ATOM    108  O5' A   B  19      12.117  17.388 -20.646  0.00  0.00    +0.000 OA
ATOM    109  C5' A   B  19      11.161  18.385 -20.332  0.00  0.00    +0.000 C 
ATOM    110  C4' A   B  19       9.838  17.777 -19.936  0.00  0.00    +0.000 C 
ATOM    111  O4' A   B  19       9.198  17.182 -21.094  0.00  0.00    +0.000 OA
ATOM    112  C3' A   B  19       9.929  16.640 -18.939  0.00  0.00    +0.000 C 
ATOM    113  O3' A   B  19      10.059  17.105 -17.602  0.00  0.00    +0.000 OA
ATOM    114  C2' A   B  19       8.649  15.858 -19.199  0.00  0.00    +0.000 C 
ATOM    115  C1' A   B  19       8.509  16.006 -20.718  0.00  0.00    +0.000 C 
ATOM    116  P   A   B  20      10.605  16.156 -16.450  0.00  0.00    +0.000 P 
ATOM    117  OP2 A   B  20      11.425  15.084 -17.067  0.00  0.00    +0.000 OA
ATOM    118  O5' A   B  20       9.275  15.499 -15.874  0.00  0.00    +0.000 OA
ATOM    119  C5' A   B  20       9.340  14.340 -15.067  0.00  0.00    +0.000 C 
ATOM    120  C4' A   B  20       8.139  13.454 -15.275  0.00  0.00    +0.000 C 
ATOM    121  O4' A   B  20       7.799  13.399 -16.687  0.00  0.00    +0.000 OA
ATOM    122  C3' A   B  20       8.335  11.995 -14.892  0.00  0.00    +0.000 C 
ATOM    123  O3' A   B  20       8.189  11.778 -13.494  0.00  0.00    +0.000 OA
ATOM    124  C2' A   B  20       7.302  11.276 -15.743  0.00  0.00    +0.000 C 
ATOM    125  C1' A   B  20       7.356  12.104 -17.033  0.00  0.00    +0.000 C 
ATOM    126  P   A   B  21       9.329  11.021 -12.690  0.00  0.00    +0.000 P 
ATOM    127  OP2 A   B  21      10.641  11.338 -13.304  0.00  0.00    +0.000 OA
ATOM    128  O5' A   B  21       8.994   9.493 -12.984  0.00  0.00    +0.000 OA
ATOM    129  C5' A   B  21       7.705   8.967 -12.703  0.00  0.00    +0.000 C 
ATOM    130  C4' A   B  21       7.454   7.686 -13.460  0.00  0.00    +0.000 C 
ATOM    131  O4' A   B  21       7.401   7.953 -14.887  0.00  0.00    +0.000 OA
ATOM    132  C3' A   B  21       8.530   6.620 -13.329  0.00  0.00    +0.000 C 
ATOM    133  O3' A   B  21       8.436   5.880 -12.120  0.00  0.00    +0.000 OA
ATOM    134  C2' A   B  21       8.308   5.775 -14.577  0.00  0.00    +0.000 C 
ATOM    135  C1' A   B  21       7.934   6.851 -15.600  0.00  0.00    +0.000 C 
ATOM    136  P   C   B  22       9.775   5.432 -11.371  0.00  0.00    +0.000 P 
ATOM    137  OP2 C   B  22      10.758   6.544 -11.445  0.00  0.00    +0.000 OA
ATOM    138  O5' C   B  22      10.312   4.231 -12.270  0.00  0.00    +0.000 OA
ATOM    139  C5' C   B  22       9.518   3.079 -12.497  0.00  0.00    +0.000 C 
ATOM    140  C4' C   B  22      10.064   2.236 -13.622  0.00  0.00    +0.000 C 
ATOM    141  O4' C   B  22      10.030   2.987 -14.866  0.00  0.00    +0.000 OA
ATOM    142  C3' C   B  22      11.517   1.817 -13.490  0.00  0.00    +0.000 C 
ATOM    143  O3' C   B  22      11.693   0.703 -12.628  0.00  0.00    +0.000 OA
ATOM    144  C2' C   B  22      11.913   1.534 -14.932  0.00  0.00    +0.000 C 
ATOM    145  C1' C   B  22      11.137   2.629 -15.672  0.00  0.00    +0.000 C 
ATOM    146  P   U   B  23      13.014   0.604 -11.716  0.00  0.00    +0.000 P 
ATOM    147  OP2 U   B  23      13.336   1.965 -11.219  0.00  0.00    +0.000 OA
ATOM    148  O5' U   B  23      14.147   0.174 -12.754  0.00  0.00    +0.000 OA
ATOM    149  C5' U   B  23      14.093  -1.076 -13.417  0.00  0.00    +0.000 C 
ATOM    150  C4' U   B  23      15.208  -1.225 -14.424  0.00  0.00    +0.000 C 
ATOM    151  O4' U   B  23      15.013  -0.288 -15.518  0.00  0.00    +0.000 OA
ATOM    152  C3' U   B  23      16.601  -0.912 -13.915  0.00  0.00    +0.000 C 
ATOM    153  O3' U   B  23      17.177  -1.986 -13.187  0.00  0.00    +0.000 OA
ATOM    154  C2' U   B  23      17.355  -0.576 -15.192  0.00  0.00    +0.000 C 
ATOM    155  C1' U   B  23      16.268   0.157 -15.994  0.00  0.00    +0.000 C 
ATOM    156  P   U   B  24      18.128  -1.661 -11.919  0.00  0.00    +0.000 P 
ATOM    157  OP1 U   B  24      18.452  -2.950 -11.255  0.00  0.00    +0.000 OA
ATOM    158  O5' U   B  24      19.460  -1.095 -12.586  0.00  0.00    +0.000 OA
ATOM    159  C5' U   B  24      20.272  -1.915 -13.409  0.00  0.00    +0.000 C 
ATOM    160  C4' U   B  24      21.395  -1.133 -14.048  0.00  0.00    +0.000 C 
ATOM    161  O4' U   B  24      20.846  -0.158 -14.976  0.00  0.00    +0.000 OA
ATOM    162  C3' U   B  24      22.243  -0.306 -13.104  0.00  0.00    +0.000 C 
ATOM    163  O3' U   B  24      23.227  -1.073 -12.428  0.00  0.00    +0.000 OA
ATOM    164  C2' U   B  24      22.831   0.750 -14.026  0.00  0.00    +0.000 C 
ATOM    165  C1' U   B  24      21.651   1.004 -14.980  0.00  0.00    +0.000 C 
ATOM    166  P   U   B  25      23.620  -0.714 -10.901  0.00  0.00    +0.000 P 
ATOM    167  OP1 U   B  25      24.502  -1.790 -10.386  0.00  0.00    +0.000 OA
ATOM    168  O5' U   B  25      24.485   0.617 -11.038  0.00  0.00    +0.000 OA
ATOM    169  C5' U   B  25      25.739   0.608 -11.699  0.00  0.00    +0.000 C 
ATOM    170  C4' U   B  25      26.266   2.004 -11.936  0.00  0.00    +0.000 C 
ATOM    171  O4' U   B  25      25.369   2.720 -12.829  0.00  0.00    +0.000 OA
ATOM    172  C3' U   B  25      26.353   2.897 -10.713  0.00  0.00    +0.000 C 
ATOM    173  O3' U   B  25      27.502   2.645  -9.924  0.00  0.00    +0.000 OA
ATOM    174  C2' U   B  25      26.329   4.289 -11.321  0.00  0.00    +0.000 C 
ATOM    175  C1' U   B  25      25.344   4.090 -12.484  0.00  0.00    +0.000 C 
ATOM    176  P   U   B  26      27.438   2.825  -8.320  0.00  0.00    +0.000 P 
ATOM    177  OP2 U   B  26      26.140   2.273  -7.856  0.00  0.00    +0.000 OA
ATOM    178  O5' U   B  26      27.404   4.408  -8.124  0.00  0.00    +0.000 OA
ATOM    179  C5' U   B  26      28.512   5.212  -8.492  0.00  0.00    +0.000 C 
ATOM    180  C4' U   B  26      28.181   6.686  -8.459  0.00  0.00    +0.000 C 
ATOM    181  O4' U   B  26      27.119   6.973  -9.412  0.00  0.00    +0.000 OA
ATOM    182  C3' U   B  26      27.643   7.221  -7.144  0.00  0.00    +0.000 C 
ATOM    183  O3' U   B  26      28.662   7.472  -6.191  0.00  0.00    +0.000 OA
ATOM    184  C2' U   B  26      26.903   8.475  -7.581  0.00  0.00    +0.000 C 
ATOM    185  C1' U   B  26      26.305   8.018  -8.920  0.00  0.00    +0.000 C 
ATOM    186  P   U   B  27      28.322   7.393  -4.612  0.00  0.00    +0.000 P 
ATOM    187  OP2 U   B  27      27.416   6.236  -4.404  0.00  0.00    +0.000 OA
ATOM    188  O5' U   B  27      27.492   8.729  -4.335  0.00  0.00    +0.000 OA
ATOM    189  C5' U   B  27      28.086  10.005  -4.505  0.00  0.00    +0.000 C 
ATOM    190  C4' U   B  27      27.076  11.124  -4.372  0.00  0.00    +0.000 C 
ATOM    191  O4' U   B  27      26.062  10.997  -5.407  0.00  0.00    +0.000 OA
ATOM    192  C3' U   B  27      26.278  11.155  -3.081  0.00  0.00    +0.000 C 
ATOM    193  O3' U   B  27      26.996  11.735  -2.003  0.00  0.00    +0.000 OA
ATOM    194  C2' U   B  27      25.040  11.945  -3.477  0.00  0.00    +0.000 C 
ATOM    195  C1' U   B  27      24.816  11.451  -4.914  0.00  0.00    +0.000 C 
ATOM    196  P   U   B  28      26.703  11.277  -0.483  0.00  0.00    +0.000 P 
ATOM    197  OP2 U   B  28      26.487   9.807  -0.498  0.00  0.00    +0.000 OA
ATOM    198  O5' U   B  28      25.315  11.984  -0.129  0.00  0.00    +0.000 OA
ATOM    199  C5' U   B  28      25.201  13.396  -0.090  0.00  0.00    +0.000 C 
ATOM    200  C4' U   B  28      23.759  13.846  -0.011  0.00  0.00    +0.000 C 
ATOM    201  O4' U   B  28      23.035  13.383  -1.184  0.00  0.00    +0.000 OA
ATOM    202  C3' U   B  28      22.954  13.303   1.154  0.00  0.00    +0.000 C 
ATOM    203  O3' U   B  28      23.185  14.009   2.364  0.00  0.00    +0.000 OA
ATOM    204  C2' U   B  28      21.522  13.422   0.651  0.00  0.00    +0.000 C 
ATOM    205  C1' U   B  28      21.699  13.078  -0.835  0.00  0.00    +0.000 C 
ATOM    206  P   A   B  29      23.061  13.264   3.784  0.00  0.00    +0.000 P 
ATOM    207  OP2 A   B  29      23.655  11.910   3.626  0.00  0.00    +0.000 OA
ATOM    208  O5' A   B  29      21.485  13.097   3.995  0.00  0.00    +0.000 OA
ATOM    209  C5' A   B  29      20.651  14.233   4.172  0.00  0.00    +0.000 C 
ATOM    210  C4' A   B  29      19.185  13.873   4.047  0.00  0.00    +0.000 C 
ATOM    211  O4' A   B  29      18.930  13.311   2.731  0.00  0.00    +0.000 OA
ATOM    212  C3' A   B  29      18.672  12.810   5.003  0.00  0.00    +0.000 C 
ATOM    213  O3' A   B  29      18.377  13.322   6.297  0.00  0.00    +0.000 OA
ATOM    214  C2' A   B  29      17.448  12.275   4.274  0.00  0.00    +0.000 C 
ATOM    215  C1' A   B  29      17.927  12.319   2.819  0.00  0.00    +0.000 C 
ATOM    216  P   A   B  30      18.509  12.391   7.596  0.00  0.00    +0.000 P 
ATOM    217  OP2 A   B  30      19.730  11.560   7.437  0.00  0.00    +0.000 OA
ATOM    218  O5' A   B  30      17.234  11.430   7.503  0.00  0.00    +0.000 OA
ATOM    219  C5' A   B  30      15.920  11.951   7.589  0.00  0.00    +0.000 C 
ATOM    220  C4' A   B  30      14.888  10.939   7.135  0.00  0.00    +0.000 C 
ATOM    221  O4' A   B  30      15.182  10.513   5.777  0.00  0.00    +0.000 OA
ATOM    222  C3' A   B  30      14.836   9.640   7.921  0.00  0.00    +0.000 C 
ATOM    223  O3' A   B  30      14.102   9.755   9.134  0.00  0.00    +0.000 OA
ATOM    224  C2' A   B  30      14.207   8.677   6.927  0.00  0.00    +0.000 C 
ATOM    225  C1' A   B  30      14.831   9.153   5.612  0.00  0.00    +0.000 C 
ATOM    226  P   A   B  31      14.432   8.811  10.385  0.00  0.00    +0.000 P 
ATOM    227  OP2 A   B  31      15.910   8.652  10.460  0.00  0.00    +0.000 OA
ATOM    228  O5' A   B  31      13.797   7.405   9.977  0.00  0.00    +0.000 OA
ATOM    229  C5' A   B  31      12.399   7.261   9.788  0.00  0.00    +0.000 C 
ATOM    230  C4' A   B  31      12.058   5.932   9.150  0.00  0.00    +0.000 C 
ATOM    231  O4' A   B  31      12.699   5.826   7.852  0.00  0.00    +0.000 OA
ATOM    232  C3' A   B  31      12.531   4.698   9.897  0.00  0.00    +0.000 C 
ATOM    233  O3' A   B  31      11.671   4.336  10.973  0.00  0.00    +0.000 OA
ATOM    234  C2' A   B  31      12.595   3.648   8.796  0.00  0.00    +0.000 C 
ATOM    235  C1' A   B  31      13.080   4.486   7.608  0.00  0.00    +0.000 C 
ATOM    236  P   A   B  32      12.252   3.615  12.277  0.00  0.00    +0.000 P 
ATOM    237  OP2 A   B  32      13.593   4.193  12.570  0.00  0.00    +0.000 OA
ATOM    238  O5' A   B  32      12.453   2.106  11.808  0.00  0.00    +0.000 OA
ATOM    239  C5' A   B  32      11.350   1.317  11.399  0.00  0.00    +0.000 C 
ATOM    240  C4' A   B  32      11.805   0.033  10.747  0.00  0.00    +0.000 C 
ATOM    241  O4' A   B  32      12.550   0.329   9.537  0.00  0.00    +0.000 OA
ATOM    242  C3' A   B  32      12.755  -0.822  11.568  0.00  0.00    +0.000 C 
ATOM    243  O3' A   B  32      12.083  -1.623  12.536  0.00  0.00    +0.000 OA
ATOM    244  C2' A   B  32      13.476  -1.635  10.501  0.00  0.00    +0.000 C 
ATOM    245  C1' A   B  32      13.597  -0.608   9.369  0.00  0.00    +0.000 C 
ATOM    246  P   U   B  33      12.741  -1.905  13.964  0.00  0.00    +0.000 P 
ATOM    247  OP2 U   B  33      13.422  -0.662  14.411  0.00  0.00    +0.000 OA
ATOM    248  O5' U   B  33      13.862  -2.995  13.639  0.00  0.00    +0.000 OA
ATOM    249  C5' U   B  33      13.516  -4.259  13.114  0.00  0.00    +0.000 C 
ATOM    250  C4' U   B  33      14.735  -5.022  12.652  0.00  0.00    +0.000 C 
ATOM    251  O4' U   B  33      15.352  -4.338  11.527  0.00  0.00    +0.000 OA
ATOM    252  C3' U   B  33      15.856  -5.149  13.666  0.00  0.00    +0.000 C 
ATOM    253  O3' U   B  33      15.627  -6.179  14.619  0.00  0.00    +0.000 OA
ATOM    254  C2' U   B  33      17.074  -5.389  12.785  0.00  0.00    +0.000 C 
ATOM    255  C1' U   B  33      16.756  -4.493  11.579  0.00  0.00    +0.000 C 
ATOM    256  P   A   B  34      16.097  -6.003  16.144  0.00  0.00    +0.000 P 
ATOM    257  OP2 A   B  34      15.851  -4.596  16.540  0.00  0.00    +0.000 OA
ATOM    258  O5' A   B  34      17.673  -6.224  16.056  0.00  0.00    +0.000 OA
ATOM    259  C5' A   B  34      18.207  -7.458  15.625  0.00  0.00    +0.000 C 
ATOM    260  C4' A   B  34      19.703  -7.372  15.419  0.00  0.00    +0.000 C 
ATOM    261  O4' A   B  34      19.999  -6.518  14.284  0.00  0.00    +0.000 OA
ATOM    262  C3' A   B  34      20.494  -6.758  16.557  0.00  0.00    +0.000 C 
ATOM    263  O3' A   B  34      20.729  -7.670  17.621  0.00  0.00    +0.000 OA
ATOM    264  C2' A   B  34      21.761  -6.284  15.862  0.00  0.00    +0.000 C 
ATOM    265  C1' A   B  34      21.211  -5.821  14.507  0.00  0.00    +0.000 C 
ATOM    266  P   A   B  35      21.146  -7.129  19.075  0.00  0.00    +0.000 P 
ATOM    267  OP2 A   B  35      20.490  -5.817  19.308  0.00  0.00    +0.000 OA
ATOM    268  O5' A   B  35      22.712  -6.877  18.914  0.00  0.00    +0.000 OA
ATOM    269  C5' A   B  35      23.378  -5.915  19.711  0.00  0.00    +0.000 C 
ATOM    270  C4' A   B  35      24.560  -5.328  18.979  0.00  0.00    +0.000 C 
ATOM    271  O4' A   B  35      24.120  -4.792  17.704  0.00  0.00    +0.000 OA
ATOM    272  C3' A   B  35      25.241  -4.147  19.655  0.00  0.00    +0.000 C 
ATOM    273  O3' A   B  35      26.155  -4.543  20.665  0.00  0.00    +0.000 OA
ATOM    274  C2' A   B  35      25.897  -3.428  18.487  0.00  0.00    +0.000 C 
ATOM    275  C1' A   B  35      24.841  -3.622  17.394  0.00  0.00    +0.000 C 
ATOM    276  P   U   B  36      26.143  -3.795  22.093  0.00  0.00    +0.000 P 
ATOM    277  OP2 U   B  36      24.737  -3.722  22.558  0.00  0.00    +0.000 OA
ATOM    278  O5' U   B  36      26.631  -2.316  21.744  0.00  0.00    +0.000 OA
ATOM    279  C5' U   B  36      27.900  -2.086  21.154  0.00  0.00    +0.000 C 
ATOM    280  C4' U   B  36      28.056  -0.655  20.696  0.00  0.00    +0.000 C 
ATOM    281  O4' U   B  36      27.099  -0.366  19.641  0.00  0.00    +0.000 OA
ATOM    282  C3' U   B  36      27.780   0.406  21.740  0.00  0.00    +0.000 C 
ATOM    283  O3' U   B  36      28.875   0.616  22.614  0.00  0.00    +0.000 OA
ATOM    284  C2' U   B  36      27.434   1.625  20.895  0.00  0.00    +0.000 C 
ATOM    285  C1' U   B  36      26.669   0.976  19.734  0.00  0.00    +0.000 C 
ATOM    286  P   A   B  37      28.614   0.940  24.169  0.00  0.00    +0.000 P 
ATOM    287  OP2 A   B  37      27.338   0.292  24.567  0.00  0.00    +0.000 OA
ATOM    288  O5' A   B  37      28.397   2.516  24.197  0.00  0.00    +0.000 OA
ATOM    289  C5' A   B  37      29.461   3.394  23.877  0.00  0.00    +0.000 C 
ATOM    290  C4' A   B  37      28.966   4.807  23.672  0.00  0.00    +0.000 C 
ATOM    291  O4' A   B  37      28.072   4.853  22.530  0.00  0.00    +0.000 OA
ATOM    292  C3' A   B  37      28.142   5.398  24.805  0.00  0.00    +0.000 C 
ATOM    293  O3' A   B  37      28.938   5.889  25.868  0.00  0.00    +0.000 OA
ATOM    294  C2' A   B  37      27.337   6.479  24.099  0.00  0.00    +0.000 C 
ATOM    295  C1' A   B  37      27.052   5.805  22.756  0.00  0.00    +0.000 C 
ATOM    296  P   U   B  38      28.355   5.926  27.366  0.00  0.00    +0.000 P 
ATOM    297  OP2 U   B  38      27.515   4.714  27.576  0.00  0.00    +0.000 OA
ATOM    298  O5' U   B  38      27.389   7.198  27.351  0.00  0.00    +0.000 OA
ATOM    299  C5' U   B  38      27.903   8.488  27.065  0.00  0.00    +0.000 C 
ATOM    300  C4' U   B  38      26.794   9.480  26.780  0.00  0.00    +0.000 C 
ATOM    301  O4' U   B  38      25.984   9.006  25.671  0.00  0.00    +0.000 OA
ATOM    302  C3' U   B  38      25.790   9.699  27.896  0.00  0.00    +0.000 C 
ATOM    303  O3' U   B  38      26.274  10.593  28.883  0.00  0.00    +0.000 OA
ATOM    304  C2' U   B  38      24.566  10.212  27.155  0.00  0.00    +0.000 C 
ATOM    305  C1' U   B  38      24.640   9.400  25.853  0.00  0.00    +0.000 C 
ATOM    306  P   U   B  39      25.490  10.844  30.217  0.00  0.00    +0.000 P 
ATOM    307  OP1 U   B  39      24.038  10.721  29.952  0.00  0.00    +0.000 OA
ATOM    308  O5' U   B  39      25.923   9.649  31.170  0.00  0.00    +0.000 OA
ATOM    309  C5' U   B  39      24.956   8.845  31.830  0.00  0.00    +0.000 C 
ATOM    310  C4' U   B  39      25.589   7.604  32.401  0.00  0.00    +0.000 C 
ATOM    311  O4' U   B  39      26.520   7.989  33.441  0.00  0.00    +0.000 OA
ATOM    312  C3' U   B  39      24.656   6.624  33.074  0.00  0.00    +0.000 C 
ATOM    313  O3' U   B  39      24.030   5.751  32.144  0.00  0.00    +0.000 OA
ATOM    314  C2' U   B  39      25.573   5.897  34.053  0.00  0.00    +0.000 C 
ATOM    315  C1' U   B  39      26.544   7.015  34.455  0.00  0.00    +0.000 C 
ATOM    316  P   C   B  40      22.561   6.030  31.600  0.00  0.00    +0.000 P 
ATOM    317  OP1 C   B  40      22.638   5.808  30.135  0.00  0.00    +0.000 OA
ATOM    318  O5' C   B  40      21.663   4.854  32.220  0.00  0.00    +0.000 OA
ATOM    319  C5' C   B  40      22.164   3.530  32.315  0.00  0.00    +0.000 C 
ATOM    320  C4' C   B  40      21.061   2.547  32.629  0.00  0.00    +0.000 C 
ATOM    321  O4' C   B  40      20.374   2.950  33.838  0.00  0.00    +0.000 OA
ATOM    322  C3' C   B  40      19.954   2.441  31.597  0.00  0.00    +0.000 C 
ATOM    323  O3' C   B  40      20.295   1.594  30.508  0.00  0.00    +0.000 OA
ATOM    324  C2' C   B  40      18.782   1.915  32.410  0.00  0.00    +0.000 C 
ATOM    325  C1' C   B  40      18.997   2.633  33.740  0.00  0.00    +0.000 C 
ATOM    326  P   U   B  41      19.911   2.018  29.014  0.00  0.00    +0.000 P 
ATOM    327  OP1 U   B  41      20.427   0.958  28.109  0.00  0.00    +0.000 OA
ATOM    328  O5' U   B  41      18.314   1.956  28.981  0.00  0.00    +0.000 OA
ATOM    329  C5' U   B  41      17.624   0.732  29.156  0.00  0.00    +0.000 C 
ATOM    330  C4' U   B  41      16.133   0.952  29.266  0.00  0.00    +0.000 C 
ATOM    331  O4' U   B  41      15.839   1.734  30.454  0.00  0.00    +0.000 OA
ATOM    332  C3' U   B  41      15.500   1.747  28.137  0.00  0.00    +0.000 C 
ATOM    333  O3' U   B  41      15.224   0.952  26.994  0.00  0.00    +0.000 OA
ATOM    334  C2' U   B  41      14.248   2.318  28.787  0.00  0.00    +0.000 C 
ATOM    335  C1' U   B  41      14.753   2.596  30.209  0.00  0.00    +0.000 C 
ATOM    336  P   U   B  42      15.596   1.492  25.528  0.00  0.00    +0.000 P 
ATOM    337  OP1 U   B  42      15.323   0.392  24.569  0.00  0.00    +0.000 OA
ATOM    338  O5' U   B  42      14.537   2.659  25.255  0.00  0.00    +0.000 OA
ATOM    339  C5' U   B  42      13.160   2.374  25.082  0.00  0.00    +0.000 C 
ATOM    340  C4' U   B  42      12.335   3.638  24.998  0.00  0.00    +0.000 C 
ATOM    341  O4' U   B  42      12.401   4.354  26.261  0.00  0.00    +0.000 OA
ATOM    342  C3' U   B  42      12.790   4.659  23.971  0.00  0.00    +0.000 C 
ATOM    343  O3' U   B  42      12.345   4.360  22.655  0.00  0.00    +0.000 OA
ATOM    344  C2' U   B  42      12.217   5.959  24.515  0.00  0.00    +0.000 C 
ATOM    345  C1' U   B  42      12.375   5.746  26.026  0.00  0.00    +0.000 C 
ATOM    346  P   A   B  43      13.338   4.535  21.405  0.00  0.00    +0.000 P 
ATOM    347  OP1 A   B  43      12.600   4.145  20.181  0.00  0.00    +0.000 OA
ATOM    348  O5' A   B  43      13.604   6.104  21.338  0.00  0.00    +0.000 OA
ATOM    349  C5' A   B  43      12.568   7.014  20.995  0.00  0.00    +0.000 C 
ATOM    350  C4' A   B  43      12.976   8.444  21.267  0.00  0.00    +0.000 C 
ATOM    351  O4' A   B  43      13.255   8.611  22.680  0.00  0.00    +0.000 OA
ATOM    352  C3' A   B  43      14.248   8.907  20.576  0.00  0.00    +0.000 C 
ATOM    353  O3' A   B  43      14.038   9.305  19.228  0.00  0.00    +0.000 OA
ATOM    354  C2' A   B  43      14.715  10.045  21.469  0.00  0.00    +0.000 C 
ATOM    355  C1' A   B  43      14.322   9.518  22.853  0.00  0.00    +0.000 C 
ATOM    356  P   C   B  44      15.075   8.853  18.082  0.00  0.00    +0.000 P 
ATOM    357  OP1 C   B  44      14.542   9.336  16.785  0.00  0.00    +0.000 OA
ATOM    358  O5' C   B  44      16.396   9.683  18.416  0.00  0.00    +0.000 OA
ATOM    359  C5' C   B  44      16.413  11.098  18.356  0.00  0.00    +0.000 C 
ATOM    360  C4' C   B  44      17.626  11.673  19.052  0.00  0.00    +0.000 C 
ATOM    361  O4' C   B  44      17.620  11.277  20.452  0.00  0.00    +0.000 OA
ATOM    362  C3' C   B  44      18.972  11.198  18.538  0.00  0.00    +0.000 C 
ATOM    363  O3' C   B  44      19.394  11.899  17.374  0.00  0.00    +0.000 OA
ATOM    364  C2' C   B  44      19.885  11.417  19.736  0.00  0.00    +0.000 C 
ATOM    365  C1' C   B  44      18.944  11.061  20.898  0.00  0.00    +0.000 C 
ATOM    366  P   U   B  45      20.187  11.121  16.208  0.00  0.00    +0.000 P 
ATOM    367  OP1 U   B  45      20.398  12.079  15.098  0.00  0.00    +0.000 OA
ATOM    368  O5' U   B  45      21.612  10.791  16.858  0.00  0.00    +0.000 OA
ATOM    369  C5' U   B  45      22.485  11.828  17.275  0.00  0.00    +0.000 C 
ATOM    370  C4' U   B  45      23.839  11.289  17.677  0.00  0.00    +0.000 C 
ATOM    371  O4' U   B  45      23.710  10.442  18.850  0.00  0.00    +0.000 OA
ATOM    372  C3' U   B  45      24.526  10.405  16.653  0.00  0.00    +0.000 C 
ATOM    373  O3' U   B  45      25.181  11.145  15.633  0.00  0.00    +0.000 OA
ATOM    374  C2' U   B  45      25.480   9.580  17.507  0.00  0.00    +0.000 C 
ATOM    375  C1' U   B  45      24.646   9.383  18.784  0.00  0.00    +0.000 C 
ATOM    376  P   U   B  46      25.155  10.634  14.118  0.00  0.00    +0.000 P 
ATOM    377  OP1 U   B  46      25.754  11.689  13.261  0.00  0.00    +0.000 OA
ATOM    378  O5' U   B  46      26.150   9.389  14.135  0.00  0.00    +0.000 OA
ATOM    379  C5' U   B  46      27.523   9.552  14.449  0.00  0.00    +0.000 C 
ATOM    380  C4' U   B  46      28.194   8.230  14.747  0.00  0.00    +0.000 C 
ATOM    381  O4' U   B  46      27.568   7.611  15.907  0.00  0.00    +0.000 OA
ATOM    382  C3' U   B  46      28.084   7.171  13.667  0.00  0.00    +0.000 C 
ATOM    383  O3' U   B  46      29.025   7.352  12.619  0.00  0.00    +0.000 OA
ATOM    384  C2' U   B  46      28.282   5.877  14.444  0.00  0.00    +0.000 C 
ATOM    385  C1' U   B  46      27.556   6.204  15.755  0.00  0.00    +0.000 C 
ATOM    386  P   U   B  47      28.679   6.846  11.145  0.00  0.00    +0.000 P 
ATOM    387  OP1 U   B  47      29.726   7.362  10.229  0.00  0.00    +0.000 OA
ATOM    388  O5' U   B  47      28.840   5.262  11.249  0.00  0.00    +0.000 OA
ATOM    389  C5' U   B  47      30.099   4.678  11.555  0.00  0.00    +0.000 C 
ATOM    390  C4' U   B  47      29.994   3.180  11.752  0.00  0.00    +0.000 C 
ATOM    391  O4' U   B  47      29.172   2.888  12.919  0.00  0.00    +0.000 OA
ATOM    392  C3' U   B  47      29.324   2.407  10.635  0.00  0.00    +0.000 C 
ATOM    393  O3' U   B  47      30.191   2.164   9.534  0.00  0.00    +0.000 OA
ATOM    394  C2' U   B  47      28.865   1.137  11.337  0.00  0.00    +0.000 C 
ATOM    395  C1' U   B  47      28.455   1.685  12.711  0.00  0.00    +0.000 C 
ATOM    396  P   A   B  48      29.591   2.077   8.047  0.00  0.00    +0.000 P 
ATOM    397  OP1 A   B  48      30.729   2.071   7.095  0.00  0.00    +0.000 OA
ATOM    398  O5' A   B  48      28.903   0.636   8.010  0.00  0.00    +0.000 OA
ATOM    399  C5' A   B  48      29.683  -0.546   8.147  0.00  0.00    +0.000 C 
ATOM    400  C4' A   B  48      28.815  -1.771   8.326  0.00  0.00    +0.000 C 
ATOM    401  O4' A   B  48      28.074  -1.674   9.574  0.00  0.00    +0.000 OA
ATOM    402  C3' A   B  48      27.737  -1.978   7.277  0.00  0.00    +0.000 C 
ATOM    403  O3' A   B  48      28.231  -2.564   6.079  0.00  0.00    +0.000 OA
ATOM    404  C2' A   B  48      26.729  -2.854   8.007  0.00  0.00    +0.000 C 
ATOM    405  C1' A   B  48      26.801  -2.274   9.425  0.00  0.00    +0.000 C 
ATOM    406  P   U   B  49      27.571  -2.183   4.664  0.00  0.00    +0.000 P 
ATOM    407  OP1 U   B  49      28.439  -2.730   3.593  0.00  0.00    +0.000 OA
ATOM    408  O5' U   B  49      26.196  -2.996   4.659  0.00  0.00    +0.000 OA
ATOM    409  C5' U   B  49      26.189  -4.414   4.699  0.00  0.00    +0.000 C 
ATOM    410  C4' U   B  49      24.809  -4.962   4.990  0.00  0.00    +0.000 C 
ATOM    411  O4' U   B  49      24.361  -4.504   6.299  0.00  0.00    +0.000 OA
ATOM    412  C3' U   B  49      23.706  -4.513   4.051  0.00  0.00    +0.000 C 
ATOM    413  O3' U   B  49      23.688  -5.238   2.830  0.00  0.00    +0.000 OA
ATOM    414  C2' U   B  49      22.453  -4.712   4.895  0.00  0.00    +0.000 C 
ATOM    415  C1' U   B  49      22.962  -4.299   6.285  0.00  0.00    +0.000 C 
ATOM    416  P   U   B  50      23.219  -4.504   1.472  0.00  0.00    +0.000 P 
ATOM    417  OP1 U   B  50      23.490  -5.427   0.340  0.00  0.00    +0.000 OA
ATOM    418  O5' U   B  50      21.634  -4.373   1.640  0.00  0.00    +0.000 OA
ATOM    419  C5' U   B  50      20.811  -5.525   1.708  0.00  0.00    +0.000 C 
ATOM    420  C4' U   B  50      19.420  -5.195   2.201  0.00  0.00    +0.000 C 
ATOM    421  O4' U   B  50      19.496  -4.593   3.524  0.00  0.00    +0.000 OA
ATOM    422  C3' U   B  50      18.644  -4.180   1.385  0.00  0.00    +0.000 C 
ATOM    423  O3' U   B  50      18.048  -4.736   0.225  0.00  0.00    +0.000 OA
ATOM    424  C2' U   B  50      17.628  -3.658   2.391  0.00  0.00    +0.000 C 
ATOM    425  C1' U   B  50      18.465  -3.637   3.675  0.00  0.00    +0.000 C 
ATOM    426  P   U   B  51      17.779  -3.801  -1.068  0.00  0.00    +0.000 P 
ATOM    427  OP1 U   B  51      17.319  -4.681  -2.173  0.00  0.00    +0.000 OA
ATOM    428  O5' U   B  51      16.551  -2.881  -0.624  0.00  0.00    +0.000 OA
ATOM    429  C5' U   B  51      15.287  -3.443  -0.322  0.00  0.00    +0.000 C 
ATOM    430  C4' U   B  51      14.383  -2.455   0.378  0.00  0.00    +0.000 C 
ATOM    431  O4' U   B  51      15.022  -1.975   1.592  0.00  0.00    +0.000 OA
ATOM    432  C3' U   B  51      14.057  -1.188  -0.389  0.00  0.00    +0.000 C 
ATOM    433  O3' U   B  51      13.027  -1.369  -1.346  0.00  0.00    +0.000 OA
ATOM    434  C2' U   B  51      13.679  -0.220   0.722  0.00  0.00    +0.000 C 
ATOM    435  C1' U   B  51      14.659  -0.631   1.826  0.00  0.00    +0.000 C 
ATOM    436  P   U   B  52      12.959  -0.423  -2.651  0.00  0.00    +0.000 P 
ATOM    437  OP1 U   B  52      11.952  -0.999  -3.574  0.00  0.00    +0.000 OA
ATOM    438  O5' U   B  52      12.380   0.952  -2.086  0.00  0.00    +0.000 OA
ATOM    439  C5' U   B  52      11.094   1.023  -1.497  0.00  0.00    +0.000 C 
ATOM    440  C4' U   B  52      10.880   2.328  -0.771  0.00  0.00    +0.000 C 
ATOM    441  O4' U   B  52      11.872   2.475   0.280  0.00  0.00    +0.000 OA
ATOM    442  C3' U   B  52      11.035   3.584  -1.606  0.00  0.00    +0.000 C 
ATOM    443  O3' U   B  52       9.880   3.889  -2.371  0.00  0.00    +0.000 OA
ATOM    444  C2' U   B  52      11.358   4.638  -0.557  0.00  0.00    +0.000 C 
ATOM    445  C1' U   B  52      12.221   3.835   0.422  0.00  0.00    +0.000 C 
ATOM    446  P   A   B  53      10.007   4.643  -3.780  0.00  0.00    +0.000 P 
ATOM    447  OP2 A   B  53      11.191   4.095  -4.489  0.00  0.00    +0.000 OA
ATOM    448  O5' A   B  53      10.326   6.147  -3.363  0.00  0.00    +0.000 OA
ATOM    449  C5' A   B  53       9.396   6.909  -2.620  0.00  0.00    +0.000 C 
ATOM    450  C4' A   B  53      10.017   8.187  -2.105  0.00  0.00    +0.000 C 
ATOM    451  O4' A   B  53      11.100   7.875  -1.190  0.00  0.00    +0.000 OA
ATOM    452  C3' A   B  53      10.659   9.082  -3.152  0.00  0.00    +0.000 C 
ATOM    453  O3' A   B  53       9.720   9.885  -3.853  0.00  0.00    +0.000 OA
ATOM    454  C2' A   B  53      11.651   9.889  -2.327  0.00  0.00    +0.000 C 
ATOM    455  C1' A   B  53      12.124   8.843  -1.310  0.00  0.00    +0.000 C 
ATOM    456  P   A   B  54       9.985  10.326  -5.368  0.00  0.00    +0.000 P 
ATOM    457  OP2 A   B  54      10.587   9.179  -6.088  0.00  0.00    +0.000 OA
ATOM    458  O5' A   B  54      11.093  11.463  -5.228  0.00  0.00    +0.000 OA
ATOM    459  C5' A   B  54      10.841  12.631  -4.472  0.00  0.00    +0.000 C 
ATOM    460  C4' A   B  54      12.110  13.414  -4.228  0.00  0.00    +0.000 C 
ATOM    461  O4' A   B  54      13.036  12.623  -3.436  0.00  0.00    +0.000 OA
ATOM    462  C3' A   B  54      12.904  13.783  -5.466  0.00  0.00    +0.000 C 
ATOM    463  O3' A   B  54      12.383  14.925  -6.134  0.00  0.00    +0.000 OA
ATOM    464  C2' A   B  54      14.306  13.987  -4.912  0.00  0.00    +0.000 C 
ATOM    465  C1' A   B  54      14.367  12.907  -3.824  0.00  0.00    +0.000 C 
ATOM    466  P   A   B  55      12.795  15.236  -7.648  0.00  0.00    +0.000 P 
ATOM    467  OP2 A   B  55      12.862  13.954  -8.400  0.00  0.00    +0.000 OA
ATOM    468  O5' A   B  55      14.282  15.794  -7.498  0.00  0.00    +0.000 OA
ATOM    469  C5' A   B  55      15.170  15.771  -8.594  0.00  0.00    +0.000 C 
ATOM    470  C4' A   B  55      16.601  15.885  -8.138  0.00  0.00    +0.000 C 
ATOM    471  O4' A   B  55      16.890  14.855  -7.157  0.00  0.00    +0.000 OA
ATOM    472  C3' A   B  55      17.653  15.672  -9.214  0.00  0.00    +0.000 C 
ATOM    473  O3' A   B  55      17.872  16.836  -9.993  0.00  0.00    +0.000 OA
ATOM    474  C2' A   B  55      18.870  15.226  -8.417  0.00  0.00    +0.000 C 
ATOM    475  C1' A   B  55      18.210  14.387  -7.314  0.00  0.00    +0.000 C 
ATOM    476  P   A   B  56      17.888  16.740 -11.588  0.00  0.00    +0.000 P 
ATOM    477  OP1 A   B  56      17.795  18.119 -12.126  0.00  0.00    +0.000 OA
ATOM    478  O5' A   B  56      19.345  16.184 -11.896  0.00  0.00    +0.000 OA
ATOM    479  C5' A   B  56      20.502  16.895 -11.489  0.00  0.00    +0.000 C 
ATOM    480  C4' A   B  56      21.759  16.088 -11.706  0.00  0.00    +0.000 C 
ATOM    481  O4' A   B  56      21.804  14.982 -10.766  0.00  0.00    +0.000 OA
ATOM    482  C3' A   B  56      21.882  15.420 -13.063  0.00  0.00    +0.000 C 
ATOM    483  O3' A   B  56      22.326  16.308 -14.078  0.00  0.00    +0.000 OA
ATOM    484  C2' A   B  56      22.848  14.278 -12.782  0.00  0.00    +0.000 C 
ATOM    485  C1' A   B  56      22.420  13.864 -11.370  0.00  0.00    +0.000 C 
ATOM    486  P   A   B  57      21.739  16.204 -15.557  0.00  0.00    +0.000 P 
ATOM    487  OP1 A   B  57      22.194  17.389 -16.322  0.00  0.00    +0.000 OA
ATOM    488  O5' A   B  57      22.482  14.919 -16.134  0.00  0.00    +0.000 OA
ATOM    489  C5' A   B  57      23.893  14.888 -16.246  0.00  0.00    +0.000 C 
ATOM    490  C4' A   B  57      24.388  13.547 -16.736  0.00  0.00    +0.000 C 
ATOM    491  O4' A   B  57      24.186  12.545 -15.703  0.00  0.00    +0.000 OA
ATOM    492  C3' A   B  57      23.667  12.982 -17.940  0.00  0.00    +0.000 C 
ATOM    493  O3' A   B  57      24.112  13.535 -19.171  0.00  0.00    +0.000 OA
ATOM    494  C2' A   B  57      23.942  11.486 -17.816  0.00  0.00    +0.000 C 
ATOM    495  C1' A   B  57      23.906  11.295 -16.295  0.00  0.00    +0.000 C 
ATOM    496  P   C   B  58      23.299  14.838 -19.757  0.00  0.00    +0.000 P 
ATOM    497  OP1 C   B  58      24.136  16.045 -19.507  0.00  0.00    +0.000 OA
ATOM    498  O5' C   B  58      23.234  14.595 -21.325  0.00  0.00    +0.000 OA
ATOM    499  C5' C   B  58      22.726  13.381 -21.849  0.00  0.00    +0.000 C 
ATOM    500  C4' C   B  58      23.711  12.722 -22.789  0.00  0.00    +0.000 C 
ATOM    501  O4' C   B  58      23.701  13.455 -24.051  0.00  0.00    +0.000 OA
ATOM    502  C3' C   B  58      25.156  12.708 -22.307  0.00  0.00    +0.000 C 
ATOM    503  O3' C   B  58      25.785  11.479 -22.676  0.00  0.00    +0.000 OA
ATOM    504  C2' C   B  58      25.793  13.871 -23.061  0.00  0.00    +0.000 C 
ATOM    505  C1' C   B  58      25.013  13.875 -24.370  0.00  0.00    +0.000 C 
ATOM    506  P   A   B  59      26.234  10.533 -21.446  0.00  0.00    +0.000 P 
ATOM    507  OP2 A   B  59      27.679  10.763 -21.201  0.00  0.00    +0.000 OA
ATOM    508  O5' A   B  59      26.074   9.029 -21.961  0.00  0.00    +0.000 OA
ATOM    509  C5' A   B  59      24.808   8.542 -22.357  0.00  0.00    +0.000 C 
ATOM    510  C4' A   B  59      24.639   7.079 -22.011  0.00  0.00    +0.000 C 
ATOM    511  O4' A   B  59      24.532   6.927 -20.573  0.00  0.00    +0.000 OA
ATOM    512  C3' A   B  59      23.385   6.415 -22.554  0.00  0.00    +0.000 C 
ATOM    513  O3' A   B  59      23.525   6.005 -23.905  0.00  0.00    +0.000 OA
ATOM    514  C2' A   B  59      23.164   5.263 -21.585  0.00  0.00    +0.000 C 
ATOM    515  C1' A   B  59      23.616   5.897 -20.261  0.00  0.00    +0.000 C 
ATOM    516  P   G   B  60      22.344   6.310 -24.955  0.00  0.00    +0.000 P 
ATOM    517  OP1 G   B  60      22.882   6.052 -26.310  0.00  0.00    +0.000 OA
ATOM    518  O5' G   B  60      21.269   5.178 -24.625  0.00  0.00    +0.000 OA
ATOM    519  C5' G   B  60      21.581   3.805 -24.793  0.00  0.00    +0.000 C 
ATOM    520  C4' G   B  60      20.486   2.904 -24.273  0.00  0.00    +0.000 C 
ATOM    521  O4' G   B  60      20.383   3.045 -22.831  0.00  0.00    +0.000 OA
ATOM    522  C3' G   B  60      19.084   3.203 -24.761  0.00  0.00    +0.000 C 
ATOM    523  O3' G   B  60      18.822   2.679 -26.056  0.00  0.00    +0.000 OA
ATOM    524  C2' G   B  60      18.216   2.572 -23.682  0.00  0.00    +0.000 C 
ATOM    525  C1' G   B  60      19.042   2.866 -22.427  0.00  0.00    +0.000 C 
ATOM    526  P   A   B  61      18.161   3.655 -27.131  0.00  0.00    +0.000 P 
ATOM    527  OP2 A   B  61      17.610   2.790 -28.211  0.00  0.00    +0.000 OA
ATOM    528  O5' A   B  61      19.393   4.464 -27.720  0.00  0.00    +0.000 OA
ATOM    529  C5' A   B  61      19.184   5.590 -28.541  0.00  0.00    +0.000 C 
ATOM    530  C4' A   B  61      20.039   5.533 -29.777  0.00  0.00    +0.000 C 
ATOM    531  O4' A   B  61      21.362   5.054 -29.424  0.00  0.00    +0.000 OA
ATOM    532  C3' A   B  61      19.573   4.566 -30.849  0.00  0.00    +0.000 C 
ATOM    533  O3' A   B  61      18.554   5.106 -31.674  0.00  0.00    +0.000 OA
ATOM    534  C2' A   B  61      20.861   4.261 -31.601  0.00  0.00    +0.000 C 
ATOM    535  C1' A   B  61      21.872   4.232 -30.459  0.00  0.00    +0.000 C 
ATOM    536  N9  A   B  61      22.064   2.874 -29.921  0.00  0.00    +0.000 N 
ATOM    537  C8  A   B  61      21.563   2.354 -28.757  0.00  0.00    +0.000 A 
ATOM    538  N7  A   B  61      21.910   1.101 -28.536  0.00  0.00    +0.000 NA
ATOM    539  C5  A   B  61      22.698   0.780 -29.639  0.00  0.00    +0.000 A 
ATOM    540  C6  A   B  61      23.373  -0.398 -30.006  0.00  0.00    +0.000 A 
ATOM    541  N6  A   B  61      23.357  -1.521 -29.272  0.00  0.00    +0.000 N 
ATOM    542  N1  A   B  61      24.070  -0.385 -31.161  0.00  0.00    +0.000 NA
ATOM    543  C2  A   B  61      24.083   0.742 -31.889  0.00  0.00    +0.000 A 
ATOM    544  N3  A   B  61      23.488   1.906 -31.648  0.00  0.00    +0.000 NA
ATOM    545  C4  A   B  61      22.802   1.862 -30.493  0.00  0.00    +0.000 A 
ATOM    546  P   C   B  62      17.488   4.173 -32.398  0.00  0.00    +0.000 P 
ATOM    547  OP1 C   B  62      16.413   5.040 -32.942  0.00  0.00    +0.000 OA
ATOM    548  O5' C   B  62      18.309   3.583 -33.618  0.00  0.00    +0.000 OA
ATOM    549  C5' C   B  62      18.914   4.438 -34.580  0.00  0.00    +0.000 C 
ATOM    550  C4' C   B  62      19.867   3.685 -35.471  0.00  0.00    +0.000 C 
ATOM    551  O4' C   B  62      20.919   3.088 -34.667  0.00  0.00    +0.000 OA
ATOM    552  C3' C   B  62      19.275   2.516 -36.225  0.00  0.00    +0.000 C 
ATOM    553  C2' C   B  62      20.494   1.646 -36.508  0.00  0.00    +0.000 C 
ATOM    554  C1' C   B  62      21.311   1.850 -35.228  0.00  0.00    +0.000 C 
ATOM    555  N1  C   B  62      21.070   0.786 -34.228  0.00  0.00    +0.000 N 
ATOM    556  C2  C   B  62      21.757  -0.427 -34.356  0.00  0.00    +0.000 A 
ATOM    557  O2  C   B  62      22.547  -0.575 -35.303  0.00  0.00    +0.000 OA
ATOM    558  N3  C   B  62      21.544  -1.411 -33.446  0.00  0.00    +0.000 NA
ATOM    559  C4  C   B  62      20.690  -1.221 -32.438  0.00  0.00    +0.000 A 
ATOM    560  N4  C   B  62      20.514  -2.220 -31.564  0.00  0.00    +0.000 N 
ATOM    561  C5  C   B  62      19.978   0.002 -32.282  0.00  0.00    +0.000 A 
ATOM    562  C6  C   B  62      20.196   0.968 -33.187  0.00  0.00    +0.000 A 
ATOM    563  H   C   B  62      19.544  -2.214 -31.734  0.00  0.00    +0.000 HD
ENDROOT
BRANCH 525 564
ATOM    564  N9  G   B  60      18.581   4.082 -21.732  0.00  0.00    +0.000 N 
ATOM    565  C8  G   B  60      19.081   5.354 -21.843  0.00  0.00    +0.000 A 
ATOM    566  N7  G   B  60      18.445   6.217 -21.089  0.00  0.00    +0.000 NA
ATOM    567  C5  G   B  60      17.469   5.464 -20.444  0.00  0.00    +0.000 A 
ATOM    568  C6  G   B  60      16.477   5.844 -19.505  0.00  0.00    +0.000 A 
ATOM    569  O6  G   B  60      16.248   6.973 -19.035  0.00  0.00    +0.000 OA
ATOM    570  N1  G   B  60      15.698   4.760 -19.112  0.00  0.00    +0.000 NA
ATOM    571  C2  G   B  60      15.852   3.470 -19.563  0.00  0.00    +0.000 A 
ATOM    572  N2  G   B  60      15.006   2.550 -19.066  0.00  0.00    +0.000 N 
ATOM    573  N3  G   B  60      16.771   3.100 -20.438  0.00  0.00    +0.000 N 
ATOM    574  C4  G   B  60      17.542   4.145 -20.833  0.00  0.00    +0.000 A 
ATOM    575  H   G   B  60      15.074   1.612 -19.356  0.00  0.00    +0.000 HD
ATOM    576  H   G   B  60      14.319   2.815 -18.412  0.00  0.00    +0.000 HD
ATOM    577  H   G   B  60      16.883   2.178 -20.764  0.00  0.00    +0.000 HD
ENDBRANCH 525 564
BRANCH 105 578
ATOM    578  N9  G   B  18      10.867  16.532 -25.816  0.00  0.00    +0.000 N 
ATOM    579  C8  G   B  18      11.718  15.715 -26.518  0.00  0.00    +0.000 A 
ATOM    580  N7  G   B  18      11.237  14.514 -26.700  0.00  0.00    +0.000 NA
ATOM    581  C5  G   B  18       9.989  14.541 -26.085  0.00  0.00    +0.000 A 
ATOM    582  C6  G   B  18       8.999  13.531 -25.963  0.00  0.00    +0.000 A 
ATOM    583  O6  G   B  18       9.027  12.363 -26.383  0.00  0.00    +0.000 OA
ATOM    584  N1  G   B  18       7.883  13.982 -25.265  0.00  0.00    +0.000 NA
ATOM    585  C2  G   B  18       7.738  15.247 -24.752  0.00  0.00    +0.000 A 
ATOM    586  N2  G   B  18       6.588  15.505 -24.110  0.00  0.00    +0.000 N 
ATOM    587  N3  G   B  18       8.652  16.200 -24.860  0.00  0.00    +0.000 N 
ATOM    588  C4  G   B  18       9.746  15.781 -25.538  0.00  0.00    +0.000 A 
ATOM    589  H   G   B  18       5.903  14.803 -24.025  0.00  0.00    +0.000 HD
ATOM    590  H   G   B  18       6.429  16.397 -23.724  0.00  0.00    +0.000 HD
ATOM    591  H   G   B  18       8.548  17.107 -24.490  0.00  0.00    +0.000 HD
ENDBRANCH 105 578
BRANCH 515 592
ATOM    592  N9  A   B  59      22.482   6.494 -19.525  0.00  0.00    +0.000 N 
ATOM    593  C8  A   B  59      22.257   7.827 -19.286  0.00  0.00    +0.000 A 
ATOM    594  N7  A   B  59      21.158   8.060 -18.594  0.00  0.00    +0.000 NA
ATOM    595  C5  A   B  59      20.636   6.794 -18.360  0.00  0.00    +0.000 A 
ATOM    596  C6  A   B  59      19.489   6.353 -17.682  0.00  0.00    +0.000 A 
ATOM    597  N6  A   B  59      18.609   7.182 -17.086  0.00  0.00    +0.000 N 
ATOM    598  N1  A   B  59      19.255   5.021 -17.629  0.00  0.00    +0.000 NA
ATOM    599  C2  A   B  59      20.124   4.189 -18.228  0.00  0.00    +0.000 A 
ATOM    600  N3  A   B  59      21.242   4.484 -18.897  0.00  0.00    +0.000 NA
ATOM    601  C4  A   B  59      21.442   5.821 -18.925  0.00  0.00    +0.000 A 
ATOM    602  H   A   B  59      18.756   8.155 -17.110  0.00  0.00    +0.000 HD
ATOM    603  H   A   B  59      17.820   6.814 -16.627  0.00  0.00    +0.000 HD
ENDBRANCH 515 592
BRANCH 405 604
ATOM    604  N9  A   B  48      25.769  -1.245   9.654  0.00  0.00    +0.000 N 
ATOM    605  C8  A   B  48      25.908   0.119   9.600  0.00  0.00    +0.000 A 
ATOM    606  N7  A   B  48      24.797   0.772   9.859  0.00  0.00    +0.000 NA
ATOM    607  C5  A   B  48      23.863  -0.229  10.097  0.00  0.00    +0.000 A 
ATOM    608  C6  A   B  48      22.498  -0.197  10.428  0.00  0.00    +0.000 A 
ATOM    609  N6  A   B  48      21.797   0.938  10.579  0.00  0.00    +0.000 N 
ATOM    610  N1  A   B  48      21.863  -1.373  10.598  0.00  0.00    +0.000 NA
ATOM    611  C2  A   B  48      22.558  -2.507  10.443  0.00  0.00    +0.000 A 
ATOM    612  N3  A   B  48      23.846  -2.668  10.135  0.00  0.00    +0.000 NA
ATOM    613  C4  A   B  48      24.447  -1.476   9.974  0.00  0.00    +0.000 A 
ATOM    614  H   A   B  48      22.239   1.809  10.460  0.00  0.00    +0.000 HD
ATOM    615  H   A   B  48      20.841   0.899  10.809  0.00  0.00    +0.000 HD
ENDBRANCH 405 604
BRANCH 495 616
ATOM    616  N9  A   B  57      22.591  10.832 -15.812  0.00  0.00    +0.000 N 
ATOM    617  C8  A   B  57      21.489  11.583 -15.489  0.00  0.00    +0.000 A 
ATOM    618  N7  A   B  57      20.463  10.867 -15.085  0.00  0.00    +0.000 NA
ATOM    619  C5  A   B  57      20.922   9.556 -15.147  0.00  0.00    +0.000 A 
ATOM    620  C6  A   B  57      20.320   8.320 -14.847  0.00  0.00    +0.000 A 
ATOM    621  N6  A   B  57      19.054   8.200 -14.410  0.00  0.00    +0.000 N 
ATOM    622  N1  A   B  57      21.056   7.203 -15.016  0.00  0.00    +0.000 NA
ATOM    623  C2  A   B  57      22.316   7.318 -15.458  0.00  0.00    +0.000 A 
ATOM    624  N3  A   B  57      22.995   8.424 -15.772  0.00  0.00    +0.000 NA
ATOM    625  C4  A   B  57      22.231   9.521 -15.593  0.00  0.00    +0.000 A 
ATOM    626  H   A   B  57      18.500   9.003 -14.280  0.00  0.00    +0.000 HD
ATOM    627  H   A   B  57      18.681   7.309 -14.220  0.00  0.00    +0.000 HD
ENDBRANCH 495 616
BRANCH 355 628
ATOM    628  N9  A   B  43      15.435   8.808  23.508  0.00  0.00    +0.000 N 
ATOM    629  C8  A   B  43      15.601   7.456  23.647  0.00  0.00    +0.000 A 
ATOM    630  N7  A   B  43      16.698   7.119  24.285  0.00  0.00    +0.000 NA
ATOM    631  C5  A   B  43      17.295   8.333  24.586  0.00  0.00    +0.000 A 
ATOM    632  C6  A   B  43      18.484   8.663  25.257  0.00  0.00    +0.000 A 
ATOM    633  N6  A   B  43      19.325   7.747  25.766  0.00  0.00    +0.000 N 
ATOM    634  N1  A   B  43      18.789   9.967  25.389  0.00  0.00    +0.000 NA
ATOM    635  C2  A   B  43      17.951  10.880  24.879  0.00  0.00    +0.000 A 
ATOM    636  N3  A   B  43      16.802  10.692  24.229  0.00  0.00    +0.000 NA
ATOM    637  C4  A   B  43      16.528   9.380  24.115  0.00  0.00    +0.000 A 
ATOM    638  H   A   B  43      19.119   6.788  25.680  0.00  0.00    +0.000 HD
ATOM    639  H   A   B  43      20.147   8.035  26.225  0.00  0.00    +0.000 HD
ENDBRANCH 355 628
BRANCH  85 640
ATOM    640  N1  C   B  16       7.914  20.008 -32.333  0.00  0.00    +0.000 N 
ATOM    641  C2  C   B  16       8.068  21.329 -31.895  0.00  0.00    +0.000 A 
ATOM    642  O2  C   B  16       8.838  22.087 -32.501  0.00  0.00    +0.000 OA
ATOM    643  N3  C   B  16       7.367  21.750 -30.810  0.00  0.00    +0.000 NA
ATOM    644  C4  C   B  16       6.546  20.911 -30.172  0.00  0.00    +0.000 A 
ATOM    645  N4  C   B  16       5.881  21.371 -29.115  0.00  0.00    +0.000 N 
ATOM    646  C5  C   B  16       6.369  19.567 -30.598  0.00  0.00    +0.000 A 
ATOM    647  C6  C   B  16       7.064  19.162 -31.671  0.00  0.00    +0.000 A 
ATOM    648  H   C   B  16       6.006  22.303 -28.822  0.00  0.00    +0.000 HD
ATOM    649  H   C   B  16       5.264  20.780 -28.626  0.00  0.00    +0.000 HD
ENDBRANCH  85 640
BRANCH  55 650
ATOM    650  N1  C   B  13       3.714  11.440 -24.244  0.00  0.00    +0.000 N 
ATOM    651  C2  C   B  13       4.861  12.240 -24.360  0.00  0.00    +0.000 A 
ATOM    652  O2  C   B  13       4.878  13.354 -23.815  0.00  0.00    +0.000 OA
ATOM    653  N3  C   B  13       5.921  11.772 -25.065  0.00  0.00    +0.000 NA
ATOM    654  C4  C   B  13       5.868  10.567 -25.637  0.00  0.00    +0.000 A 
ATOM    655  N4  C   B  13       6.939  10.151 -26.320  0.00  0.00    +0.000 N 
ATOM    656  C5  C   B  13       4.714   9.737 -25.538  0.00  0.00    +0.000 A 
ATOM    657  C6  C   B  13       3.670  10.211 -24.840  0.00  0.00    +0.000 A 
ATOM    658  H   C   B  13       6.933   9.267 -26.754  0.00  0.00    +0.000 HD
ATOM    659  H   C   B  13       7.734  10.728 -26.389  0.00  0.00    +0.000 HD
ENDBRANCH  55 650
BRANCH 505 660
ATOM    660  N1  C   B  58      24.918  15.205 -24.999  0.00  0.00    +0.000 N 
ATOM    661  C2  C   B  58      25.489  15.407 -26.261  0.00  0.00    +0.000 A 
ATOM    662  O2  C   B  58      26.061  14.458 -26.827  0.00  0.00    +0.000 OA
ATOM    663  N3  C   B  58      25.406  16.637 -26.837  0.00  0.00    +0.000 NA
ATOM    664  C4  C   B  58      24.778  17.629 -26.199  0.00  0.00    +0.000 A 
ATOM    665  N4  C   B  58      24.715  18.813 -26.798  0.00  0.00    +0.000 N 
ATOM    666  C5  C   B  58      24.196  17.452 -24.911  0.00  0.00    +0.000 A 
ATOM    667  C6  C   B  58      24.292  16.233 -24.353  0.00  0.00    +0.000 A 
ATOM    668  H   C   B  58      25.117  18.936 -27.688  0.00  0.00    +0.000 HD
ATOM    669  H   C   B  58      24.266  19.567 -26.352  0.00  0.00    +0.000 HD
ENDBRANCH 505 660
BRANCH 325 670
ATOM    670  N1  C   B  40      18.214   3.882  33.833  0.00  0.00    +0.000 N 
ATOM    671  C2  C   B  40      16.842   3.804  34.088  0.00  0.00    +0.000 A 
ATOM    672  O2  C   B  40      16.313   2.693  34.225  0.00  0.00    +0.000 OA
ATOM    673  N3  C   B  40      16.120   4.948  34.183  0.00  0.00    +0.000 NA
ATOM    674  C4  C   B  40      16.718   6.132  34.034  0.00  0.00    +0.000 A 
ATOM    675  N4  C   B  40      15.963   7.228  34.136  0.00  0.00    +0.000 N 
ATOM    676  C5  C   B  40      18.112   6.242  33.775  0.00  0.00    +0.000 A 
ATOM    677  C6  C   B  40      18.817   5.103  33.688  0.00  0.00    +0.000 A 
ATOM    678  H   C   B  40      16.371   8.118  34.032  0.00  0.00    +0.000 HD
ATOM    679  H   C   B  40      14.998   7.146  34.316  0.00  0.00    +0.000 HD
ENDBRANCH 325 670
BRANCH  95 680
ATOM    680  N1  C   B  17      10.766  20.412 -28.779  0.00  0.00    +0.000 N 
ATOM    681  C2  C   B  17      10.051  21.022 -27.744  0.00  0.00    +0.000 A 
ATOM    682  O2  C   B  17      10.460  22.099 -27.278  0.00  0.00    +0.000 OA
ATOM    683  N3  C   B  17       8.923  20.424 -27.278  0.00  0.00    +0.000 NA
ATOM    684  C4  C   B  17       8.508  19.268 -27.804  0.00  0.00    +0.000 A 
ATOM    685  N4  C   B  17       7.394  18.719 -27.311  0.00  0.00    +0.000 N 
ATOM    686  C5  C   B  17       9.217  18.625 -28.857  0.00  0.00    +0.000 A 
ATOM    687  C6  C   B  17      10.330  19.227 -29.310  0.00  0.00    +0.000 A 
ATOM    688  H   C   B  17       7.061  17.868 -27.677  0.00  0.00    +0.000 HD
ATOM    689  H   C   B  17       6.906  19.166 -26.582  0.00  0.00    +0.000 HD
ENDBRANCH  95 680
BRANCH 145 690
ATOM    690  N1  C   B  22      11.962   3.839 -15.902  0.00  0.00    +0.000 N 
ATOM    691  C2  C   B  22      12.858   3.842 -16.980  0.00  0.00    +0.000 A 
ATOM    692  O2  C   B  22      12.936   2.839 -17.703  0.00  0.00    +0.000 OA
ATOM    693  N3  C   B  22      13.619   4.944 -17.204  0.00  0.00    +0.000 NA
ATOM    694  C4  C   B  22      13.511   6.007 -16.402  0.00  0.00    +0.000 A 
ATOM    695  N4  C   B  22      14.281   7.067 -16.662  0.00  0.00    +0.000 N 
ATOM    696  C5  C   B  22      12.610   6.026 -15.300  0.00  0.00    +0.000 A 
ATOM    697  C6  C   B  22      11.863   4.933 -15.090  0.00  0.00    +0.000 A 
ATOM    698  H   C   B  22      14.902   7.049 -17.425  0.00  0.00    +0.000 HD
ATOM    699  H   C   B  22      14.227   7.867 -16.090  0.00  0.00    +0.000 HD
ENDBRANCH 145 690
BRANCH 365 700
ATOM    700  N1  C   B  44      19.070   9.643  21.312  0.00  0.00    +0.000 N 
ATOM    701  C2  C   B  44      20.129   9.280  22.147  0.00  0.00    +0.000 A 
ATOM    702  O2  C   B  44      20.933  10.147  22.523  0.00  0.00    +0.000 OA
ATOM    703  N3  C   B  44      20.249   7.982  22.532  0.00  0.00    +0.000 NA
ATOM    704  C4  C   B  44      19.369   7.070  22.111  0.00  0.00    +0.000 A 
ATOM    705  N4  C   B  44      19.532   5.808  22.515  0.00  0.00    +0.000 N 
ATOM    706  C5  C   B  44      18.285   7.416  21.260  0.00  0.00    +0.000 A 
ATOM    707  C6  C   B  44      18.173   8.700  20.888  0.00  0.00    +0.000 A 
ATOM    708  H   C   B  44      18.900   5.112  22.222  0.00  0.00    +0.000 HD
ATOM    709  H   C   B  44      20.284   5.573  23.106  0.00  0.00    +0.000 HD
ENDBRANCH 365 700
BRANCH 375 710
ATOM    710  N1  U   B  45      23.909   8.099  18.780  0.00  0.00    +0.000 N 
ATOM    711  C2  U   B  45      24.631   6.942  19.016  0.00  0.00    +0.000 A 
ATOM    712  O2  U   B  45      25.832   6.933  19.214  0.00  0.00    +0.000 OA
ATOM    713  N3  U   B  45      23.892   5.783  19.006  0.00  0.00    +0.000 N 
ATOM    714  C4  U   B  45      22.533   5.664  18.790  0.00  0.00    +0.000 A 
ATOM    715  O4  U   B  45      22.014   4.544  18.816  0.00  0.00    +0.000 OA
ATOM    716  C5  U   B  45      21.858   6.903  18.555  0.00  0.00    +0.000 A 
ATOM    717  C6  U   B  45      22.554   8.051  18.562  0.00  0.00    +0.000 A 
ATOM    718  H   U   B  45      24.385   4.947  19.171  0.00  0.00    +0.000 HD
ENDBRANCH 375 710
BRANCH 385 719
ATOM    719  N1  U   B  46      26.146   5.744  15.739  0.00  0.00    +0.000 N 
ATOM    720  C2  U   B  46      25.908   4.412  16.025  0.00  0.00    +0.000 A 
ATOM    721  O2  U   B  46      26.794   3.620  16.282  0.00  0.00    +0.000 OA
ATOM    722  N3  U   B  46      24.583   4.033  15.999  0.00  0.00    +0.000 N 
ATOM    723  C4  U   B  46      23.497   4.840  15.719  0.00  0.00    +0.000 A 
ATOM    724  O4  U   B  46      22.361   4.356  15.735  0.00  0.00    +0.000 OA
ATOM    725  C5  U   B  46      23.825   6.204  15.432  0.00  0.00    +0.000 A 
ATOM    726  C6  U   B  46      25.107   6.599  15.451  0.00  0.00    +0.000 A 
ATOM    727  H   U   B  46      24.390   3.089  16.201  0.00  0.00    +0.000 HD
ENDBRANCH 385 719
BRANCH 395 728
ATOM    728  N1  U   B  47      27.002   1.980  12.782  0.00  0.00    +0.000 N 
ATOM    729  C2  U   B  47      26.149   0.918  13.035  0.00  0.00    +0.000 A 
ATOM    730  O2  U   B  47      26.540  -0.223  13.196  0.00  0.00    +0.000 OA
ATOM    731  N3  U   B  47      24.811   1.243  13.094  0.00  0.00    +0.000 N 
ATOM    732  C4  U   B  47      24.255   2.496  12.925  0.00  0.00    +0.000 A 
ATOM    733  O4  U   B  47      23.030   2.633  13.005  0.00  0.00    +0.000 OA
ATOM    734  C5  U   B  47      25.201   3.541  12.664  0.00  0.00    +0.000 A 
ATOM    735  C6  U   B  47      26.510   3.253  12.602  0.00  0.00    +0.000 A 
ATOM    736  H   U   B  47      24.186   0.504  13.276  0.00  0.00    +0.000 HD
ENDBRANCH 395 728
BRANCH 335 737
ATOM    737  N1  U   B  41      15.215   3.991  30.367  0.00  0.00    +0.000 N 
ATOM    738  C2  U   B  41      14.254   4.970  30.541  0.00  0.00    +0.000 A 
ATOM    739  O2  U   B  41      13.058   4.735  30.567  0.00  0.00    +0.000 OA
ATOM    740  N3  U   B  41      14.743   6.248  30.689  0.00  0.00    +0.000 N 
ATOM    741  C4  U   B  41      16.068   6.633  30.678  0.00  0.00    +0.000 A 
ATOM    742  O4  U   B  41      16.350   7.824  30.824  0.00  0.00    +0.000 OA
ATOM    743  C5  U   B  41      16.998   5.564  30.494  0.00  0.00    +0.000 A 
ATOM    744  C6  U   B  41      16.549   4.309  30.350  0.00  0.00    +0.000 A 
ATOM    745  H   U   B  41      14.078   6.962  30.816  0.00  0.00    +0.000 HD
ENDBRANCH 335 737
BRANCH 415 746
ATOM    746  N1  U   B  49      22.689  -2.871   6.570  0.00  0.00    +0.000 N 
ATOM    747  C2  U   B  49      21.426  -2.545   7.034  0.00  0.00    +0.000 A 
ATOM    748  O2  U   B  49      20.551  -3.372   7.217  0.00  0.00    +0.000 OA
ATOM    749  N3  U   B  49      21.224  -1.207   7.287  0.00  0.00    +0.000 N 
ATOM    750  C4  U   B  49      22.138  -0.185   7.119  0.00  0.00    +0.000 A 
ATOM    751  O4  U   B  49      21.810   0.973   7.386  0.00  0.00    +0.000 OA
ATOM    752  C5  U   B  49      23.418  -0.603   6.630  0.00  0.00    +0.000 A 
ATOM    753  C6  U   B  49      23.642  -1.900   6.379  0.00  0.00    +0.000 A 
ATOM    754  H   U   B  49      20.335  -0.952   7.623  0.00  0.00    +0.000 HD
ENDBRANCH 415 746
BRANCH 345 755
ATOM    755  N1  U   B  42      13.634   6.330  26.537  0.00  0.00    +0.000 N 
ATOM    756  C2  U   B  42      13.660   7.696  26.754  0.00  0.00    +0.000 A 
ATOM    757  O2  U   B  42      12.703   8.422  26.543  0.00  0.00    +0.000 OA
ATOM    758  N3  U   B  42      14.853   8.187  27.231  0.00  0.00    +0.000 N 
ATOM    759  C4  U   B  42      15.995   7.463  27.505  0.00  0.00    +0.000 A 
ATOM    760  O4  U   B  42      16.992   8.048  27.931  0.00  0.00    +0.000 OA
ATOM    761  C5  U   B  42      15.888   6.058  27.254  0.00  0.00    +0.000 A 
ATOM    762  C6  U   B  42      14.739   5.553  26.790  0.00  0.00    +0.000 A 
ATOM    763  H   U   B  42      14.897   9.157  27.394  0.00  0.00    +0.000 HD
ENDBRANCH 345 755
BRANCH 425 764
ATOM    764  N1  U   B  50      19.076  -2.310   3.909  0.00  0.00    +0.000 N 
ATOM    765  C2  U   B  50      18.275  -1.335   4.481  0.00  0.00    +0.000 A 
ATOM    766  O2  U   B  50      17.114  -1.528   4.792  0.00  0.00    +0.000 OA
ATOM    767  N3  U   B  50      18.889  -0.120   4.681  0.00  0.00    +0.000 N 
ATOM    768  C4  U   B  50      20.190   0.211   4.368  0.00  0.00    +0.000 A 
ATOM    769  O4  U   B  50      20.601   1.350   4.607  0.00  0.00    +0.000 OA
ATOM    770  C5  U   B  50      20.952  -0.850   3.778  0.00  0.00    +0.000 A 
ATOM    771  C6  U   B  50      20.381  -2.044   3.574  0.00  0.00    +0.000 A 
ATOM    772  H   U   B  50      18.341   0.588   5.091  0.00  0.00    +0.000 HD
ENDBRANCH 425 764
BRANCH 315 773
ATOM    773  N1  U   B  39      26.184   7.653  35.738  0.00  0.00    +0.000 N 
ATOM    774  C2  U   B  39      26.876   7.251  36.860  0.00  0.00    +0.000 A 
ATOM    775  O2  U   B  39      27.754   6.411  36.826  0.00  0.00    +0.000 OA
ATOM    776  N3  U   B  39      26.506   7.877  38.033  0.00  0.00    +0.000 N 
ATOM    777  C4  U   B  39      25.531   8.842  38.190  0.00  0.00    +0.000 A 
ATOM    778  O4  U   B  39      25.320   9.305  39.307  0.00  0.00    +0.000 OA
ATOM    779  C5  U   B  39      24.856   9.199  36.983  0.00  0.00    +0.000 A 
ATOM    780  C6  U   B  39      25.201   8.613  35.831  0.00  0.00    +0.000 A 
ATOM    781  H   U   B  39      26.990   7.606  38.846  0.00  0.00    +0.000 HD
ENDBRANCH 315 773
BRANCH 305 782
ATOM    782  N1  U   B  38      23.788   8.187  25.887  0.00  0.00    +0.000 N 
ATOM    783  C2  U   B  38      22.443   8.344  25.615  0.00  0.00    +0.000 A 
ATOM    784  O2  U   B  38      21.938   9.423  25.354  0.00  0.00    +0.000 OA
ATOM    785  N3  U   B  38      21.701   7.187  25.658  0.00  0.00    +0.000 N 
ATOM    786  C4  U   B  38      22.159   5.912  25.938  0.00  0.00    +0.000 A 
ATOM    787  O4  U   B  38      21.364   4.967  25.936  0.00  0.00    +0.000 OA
ATOM    788  C5  U   B  38      23.561   5.830  26.208  0.00  0.00    +0.000 A 
ATOM    789  C6  U   B  38      24.311   6.944  26.173  0.00  0.00    +0.000 A 
ATOM    790  H   U   B  38      20.739   7.276  25.469  0.00  0.00    +0.000 HD
ENDBRANCH 305 782
BRANCH 295 791
ATOM    791  N9  A   B  37      25.755   5.107  22.755  0.00  0.00    +0.000 N 
ATOM    792  C8  A   B  37      25.514   3.770  22.940  0.00  0.00    +0.000 A 
ATOM    793  N7  A   B  37      24.241   3.448  22.884  0.00  0.00    +0.000 NA
ATOM    794  C5  A   B  37      23.601   4.658  22.647  0.00  0.00    +0.000 A 
ATOM    795  C6  A   B  37      22.248   5.001  22.483  0.00  0.00    +0.000 A 
ATOM    796  N1  A   B  37      21.949   6.295  22.259  0.00  0.00    +0.000 NA
ATOM    797  C2  A   B  37      22.947   7.188  22.207  0.00  0.00    +0.000 A 
ATOM    798  N3  A   B  37      24.260   6.987  22.344  0.00  0.00    +0.000 NA
ATOM    799  C4  A   B  37      24.521   5.685  22.564  0.00  0.00    +0.000 A 
BRANCH 795 800
ATOM    800  N6  A   B  37      21.245   4.110  22.538  0.00  0.00    +0.000 N 
ATOM    801  H   A   B  37      20.315   4.408  22.416  0.00  0.00    +0.000 HD
ATOM    802  H   A   B  37      21.440   3.159  22.701  0.00  0.00    +0.000 HD
ENDBRANCH 795 800
ENDBRANCH 295 791
BRANCH 445 803
ATOM    803  N1  U   B  52      13.668   3.985   0.139  0.00  0.00    +0.000 N 
ATOM    804  C2  U   B  52      14.301   5.128   0.608  0.00  0.00    +0.000 A 
ATOM    805  O2  U   B  52      13.719   5.998   1.231  0.00  0.00    +0.000 OA
ATOM    806  N3  U   B  52      15.646   5.211   0.320  0.00  0.00    +0.000 N 
ATOM    807  C4  U   B  52      16.402   4.294  -0.375  0.00  0.00    +0.000 A 
ATOM    808  O4  U   B  52      17.604   4.509  -0.558  0.00  0.00    +0.000 OA
ATOM    809  C5  U   B  52      15.680   3.143  -0.828  0.00  0.00    +0.000 A 
ATOM    810  C6  U   B  52      14.372   3.033  -0.562  0.00  0.00    +0.000 A 
ATOM    811  H   U   B  52      16.117   6.012   0.646  0.00  0.00    +0.000 HD
ENDBRANCH 445 803
BRANCH 225 812
ATOM    812  N9  A   B  30      16.046   8.392   5.276  0.00  0.00    +0.000 N 
ATOM    813  C8  A   B  30      17.355   8.776   5.430  0.00  0.00    +0.000 A 
ATOM    814  N7  A   B  30      18.218   7.871   5.028  0.00  0.00    +0.000 NA
ATOM    815  C5  A   B  30      17.428   6.820   4.582  0.00  0.00    +0.000 A 
ATOM    816  C6  A   B  30      17.733   5.564   4.032  0.00  0.00    +0.000 A 
ATOM    817  N1  A   B  30      16.704   4.756   3.692  0.00  0.00    +0.000 NA
ATOM    818  C2  A   B  30      15.452   5.186   3.893  0.00  0.00    +0.000 A 
ATOM    819  N3  A   B  30      15.034   6.347   4.400  0.00  0.00    +0.000 NA
ATOM    820  C4  A   B  30      16.086   7.128   4.728  0.00  0.00    +0.000 A 
BRANCH 816 821
ATOM    821  N6  A   B  30      18.985   5.128   3.833  0.00  0.00    +0.000 N 
ATOM    822  H   A   B  30      19.140   4.237   3.443  0.00  0.00    +0.000 HD
ATOM    823  H   A   B  30      19.749   5.699   4.076  0.00  0.00    +0.000 HD
ENDBRANCH 816 821
ENDBRANCH 225 812
BRANCH 135 824
ATOM    824  N9  A   B  21       9.106   7.310 -16.370  0.00  0.00    +0.000 N 
ATOM    825  C8  A   B  21       9.792   8.490 -16.244  0.00  0.00    +0.000 A 
ATOM    826  N7  A   B  21      10.797   8.610 -17.084  0.00  0.00    +0.000 NA
ATOM    827  C5  A   B  21      10.776   7.428 -17.809  0.00  0.00    +0.000 A 
ATOM    828  C6  A   B  21      11.581   6.938 -18.857  0.00  0.00    +0.000 A 
ATOM    829  N1  A   B  21      11.285   5.719 -19.359  0.00  0.00    +0.000 NA
ATOM    830  C2  A   B  21      10.249   5.043 -18.841  0.00  0.00    +0.000 A 
ATOM    831  N3  A   B  21       9.415   5.399 -17.858  0.00  0.00    +0.000 NA
ATOM    832  C4  A   B  21       9.739   6.619 -17.381  0.00  0.00    +0.000 A 
BRANCH 828 833
ATOM    833  N6  A   B  21      12.619   7.608 -19.375  0.00  0.00    +0.000 N 
ATOM    834  H   A   B  21      13.144   7.212 -20.108  0.00  0.00    +0.000 HD
ATOM    835  H   A   B  21      12.857   8.496 -19.023  0.00  0.00    +0.000 HD
ENDBRANCH 828 833
ENDBRANCH 135 824
BRANCH 125 836
ATOM    836  N9  A   B  20       8.305  11.545 -18.014  0.00  0.00    +0.000 N 
ATOM    837  C8  A   B  20       9.488  12.102 -18.435  0.00  0.00    +0.000 A 
ATOM    838  N7  A   B  20      10.127  11.377 -19.326  0.00  0.00    +0.000 NA
ATOM    839  C5  A   B  20       9.311  10.271 -19.506  0.00  0.00    +0.000 A 
ATOM    840  C6  A   B  20       9.426   9.129 -20.324  0.00  0.00    +0.000 A 
ATOM    841  N1  A   B  20       8.436   8.210 -20.268  0.00  0.00    +0.000 NA
ATOM    842  C2  A   B  20       7.401   8.428 -19.444  0.00  0.00    +0.000 A 
ATOM    843  N3  A   B  20       7.177   9.461 -18.627  0.00  0.00    +0.000 NA
ATOM    844  C4  A   B  20       8.184  10.358 -18.708  0.00  0.00    +0.000 A 
BRANCH 840 845
ATOM    845  N6  A   B  20      10.464   8.910 -21.148  0.00  0.00    +0.000 N 
ATOM    846  H   A   B  20      10.493   8.094 -21.698  0.00  0.00    +0.000 HD
ATOM    847  H   A   B  20      11.196   9.566 -21.202  0.00  0.00    +0.000 HD
ENDBRANCH 840 845
ENDBRANCH 125 836
BRANCH 155 848
ATOM    848  N1  U   B  23      16.341   1.625 -15.819  0.00  0.00    +0.000 N 
ATOM    849  C2  U   B  23      17.279   2.312 -16.575  0.00  0.00    +0.000 A 
ATOM    850  O2  U   B  23      18.029   1.761 -17.359  0.00  0.00    +0.000 OA
ATOM    851  N3  U   B  23      17.302   3.672 -16.377  0.00  0.00    +0.000 N 
ATOM    852  C4  U   B  23      16.504   4.399 -15.518  0.00  0.00    +0.000 A 
ATOM    853  O4  U   B  23      16.644   5.622 -15.449  0.00  0.00    +0.000 OA
ATOM    854  C5  U   B  23      15.566   3.619 -14.772  0.00  0.00    +0.000 A 
ATOM    855  C6  U   B  23      15.518   2.290 -14.944  0.00  0.00    +0.000 A 
ATOM    856  H   U   B  23      17.958   4.182 -16.905  0.00  0.00    +0.000 HD
ENDBRANCH 155 848
BRANCH 115 857
ATOM    857  N9  A   B  19       9.100  14.872 -21.454  0.00  0.00    +0.000 N 
ATOM    858  C8  A   B  19      10.324  14.821 -22.068  0.00  0.00    +0.000 A 
ATOM    859  N7  A   B  19      10.573  13.672 -22.654  0.00  0.00    +0.000 NA
ATOM    860  C5  A   B  19       9.439  12.913 -22.413  0.00  0.00    +0.000 A 
ATOM    861  C6  A   B  19       9.076  11.603 -22.772  0.00  0.00    +0.000 A 
ATOM    862  N1  A   B  19       7.869  11.152 -22.371  0.00  0.00    +0.000 NA
ATOM    863  C2  A   B  19       7.080  11.968 -21.659  0.00  0.00    +0.000 A 
ATOM    864  N3  A   B  19       7.307  13.221 -21.259  0.00  0.00    +0.000 NA
ATOM    865  C4  A   B  19       8.521  13.640 -21.675  0.00  0.00    +0.000 A 
BRANCH 861 866
ATOM    866  N6  A   B  19       9.864  10.782 -23.483  0.00  0.00    +0.000 N 
ATOM    867  H   A   B  19      10.749  11.089 -23.786  0.00  0.00    +0.000 HD
ATOM    868  H   A   B  19       9.557   9.872 -23.701  0.00  0.00    +0.000 HD
ENDBRANCH 861 866
ENDBRANCH 115 857
BRANCH 165 869
ATOM    869  N1  U   B  24      20.819   2.149 -14.547  0.00  0.00    +0.000 N 
ATOM    870  C2  U   B  24      21.250   3.417 -14.901  0.00  0.00    +0.000 A 
ATOM    871  O2  U   B  24      22.264   3.618 -15.543  0.00  0.00    +0.000 OA
ATOM    872  N3  U   B  24      20.441   4.445 -14.479  0.00  0.00    +0.000 N 
ATOM    873  C4  U   B  24      19.275   4.336 -13.750  0.00  0.00    +0.000 A 
ATOM    874  O4  U   B  24      18.654   5.357 -13.440  0.00  0.00    +0.000 OA
ATOM    875  C5  U   B  24      18.900   2.996 -13.421  0.00  0.00    +0.000 A 
ATOM    876  C6  U   B  24      19.668   1.974 -13.820  0.00  0.00    +0.000 A 
ATOM    877  H   U   B  24      20.724   5.356 -14.723  0.00  0.00    +0.000 HD
ENDBRANCH 165 869
BRANCH 175 878
ATOM    878  N1  U   B  25      23.960   4.455 -12.105  0.00  0.00    +0.000 N 
ATOM    879  C2  U   B  25      23.613   5.790 -12.188  0.00  0.00    +0.000 A 
ATOM    880  O2  U   B  25      24.386   6.656 -12.555  0.00  0.00    +0.000 OA
ATOM    881  N3  U   B  25      22.317   6.079 -11.827  0.00  0.00    +0.000 N 
ATOM    882  C4  U   B  25      21.360   5.186 -11.397  0.00  0.00    +0.000 A 
ATOM    883  O4  U   B  25      20.234   5.597 -11.105  0.00  0.00    +0.000 OA
ATOM    884  C5  U   B  25      21.797   3.825 -11.335  0.00  0.00    +0.000 A 
ATOM    885  C6  U   B  25      23.051   3.515 -11.683  0.00  0.00    +0.000 A 
ATOM    886  H   U   B  25      22.045   7.024 -11.882  0.00  0.00    +0.000 HD
ENDBRANCH 175 878
BRANCH 185 887
ATOM    887  N1  U   B  26      24.924   7.508  -8.762  0.00  0.00    +0.000 N 
ATOM    888  C2  U   B  26      23.907   8.442  -8.708  0.00  0.00    +0.000 A 
ATOM    889  O2  U   B  26      24.101   9.642  -8.785  0.00  0.00    +0.000 OA
ATOM    890  N3  U   B  26      22.642   7.919  -8.564  0.00  0.00    +0.000 N 
ATOM    891  C4  U   B  26      22.304   6.589  -8.467  0.00  0.00    +0.000 A 
ATOM    892  O4  U   B  26      21.119   6.272  -8.338  0.00  0.00    +0.000 OA
ATOM    893  C5  U   B  26      23.412   5.686  -8.529  0.00  0.00    +0.000 A 
ATOM    894  C6  U   B  26      24.653   6.164  -8.672  0.00  0.00    +0.000 A 
ATOM    895  H   U   B  26      21.900   8.565  -8.526  0.00  0.00    +0.000 HD
ENDBRANCH 185 887
BRANCH 195 896
ATOM    896  N1  U   B  27      23.848  10.331  -4.972  0.00  0.00    +0.000 N 
ATOM    897  C2  U   B  27      22.502  10.652  -4.914  0.00  0.00    +0.000 A 
ATOM    898  O2  U   B  27      22.094  11.796  -4.817  0.00  0.00    +0.000 OA
ATOM    899  N3  U   B  27      21.642   9.579  -4.976  0.00  0.00    +0.000 N 
ATOM    900  C4  U   B  27      21.990   8.249  -5.084  0.00  0.00    +0.000 A 
ATOM    901  O4  U   B  27      21.102   7.394  -5.129  0.00  0.00    +0.000 OA
ATOM    902  C5  U   B  27      23.401   8.000  -5.137  0.00  0.00    +0.000 A 
ATOM    903  C6  U   B  27      24.260   9.025  -5.079  0.00  0.00    +0.000 A 
ATOM    904  H   U   B  27      20.679   9.782  -4.939  0.00  0.00    +0.000 HD
ENDBRANCH 195 896
BRANCH 205 905
ATOM    905  N1  U   B  28      21.458  11.640  -1.104  0.00  0.00    +0.000 N 
ATOM    906  C2  U   B  28      20.141  11.229  -1.225  0.00  0.00    +0.000 A 
ATOM    907  O2  U   B  28      19.194  11.988  -1.117  0.00  0.00    +0.000 OA
ATOM    908  N3  U   B  28      19.971   9.886  -1.477  0.00  0.00    +0.000 N 
ATOM    909  C4  U   B  28      20.966   8.938  -1.617  0.00  0.00    +0.000 A 
ATOM    910  O4  U   B  28      20.657   7.766  -1.843  0.00  0.00    +0.000 OA
ATOM    911  C5  U   B  28      22.299   9.443  -1.477  0.00  0.00    +0.000 A 
ATOM    912  C6  U   B  28      22.493  10.744  -1.230  0.00  0.00    +0.000 A 
ATOM    913  H   U   B  28      19.044   9.568  -1.567  0.00  0.00    +0.000 HD
ENDBRANCH 205 905
BRANCH 215 914
ATOM    914  N9  A   B  29      18.502  11.031   2.393  0.00  0.00    +0.000 N 
ATOM    915  C8  A   B  29      19.827  10.700   2.257  0.00  0.00    +0.000 A 
ATOM    916  N7  A   B  29      20.021   9.466   1.852  0.00  0.00    +0.000 NA
ATOM    917  C5  A   B  29      18.740   8.948   1.713  0.00  0.00    +0.000 A 
ATOM    918  C6  A   B  29      18.258   7.690   1.313  0.00  0.00    +0.000 A 
ATOM    919  N1  A   B  29      16.921   7.506   1.283  0.00  0.00    +0.000 NA
ATOM    920  C2  A   B  29      16.120   8.522   1.633  0.00  0.00    +0.000 A 
ATOM    921  N3  A   B  29      16.453   9.756   2.025  0.00  0.00    +0.000 NA
ATOM    922  C4  A   B  29      17.794   9.903   2.043  0.00  0.00    +0.000 A 
BRANCH 918 923
ATOM    923  N6  A   B  29      19.056   6.670   0.964  0.00  0.00    +0.000 N 
ATOM    924  H   A   B  29      18.664   5.809   0.692  0.00  0.00    +0.000 HD
ATOM    925  H   A   B  29      20.034   6.782   0.980  0.00  0.00    +0.000 HD
ENDBRANCH 918 923
ENDBRANCH 215 914
BRANCH  25 926
ATOM    926  N1  U   B  10      12.867   1.980 -22.085  0.00  0.00    +0.000 N 
ATOM    927  C2  U   B  10      12.239   2.737 -21.113  0.00  0.00    +0.000 A 
ATOM    928  O2  U   B  10      11.437   2.273 -20.323  0.00  0.00    +0.000 OA
ATOM    929  N3  U   B  10      12.582   4.071 -21.095  0.00  0.00    +0.000 N 
ATOM    930  C4  U   B  10      13.472   4.710 -21.933  0.00  0.00    +0.000 A 
ATOM    931  O4  U   B  10      13.673   5.915 -21.792  0.00  0.00    +0.000 OA
ATOM    932  C5  U   B  10      14.087   3.860 -22.912  0.00  0.00    +0.000 A 
ATOM    933  C6  U   B  10      13.775   2.556 -22.950  0.00  0.00    +0.000 A 
ATOM    934  H   U   B  10      12.145   4.628 -20.411  0.00  0.00    +0.000 HD
ENDBRANCH  25 926
BRANCH  75 935
ATOM    935  N1  U   B  15       1.535  18.229 -35.510  0.00  0.00    +0.000 N 
ATOM    936  C2  U   B  15       1.213  19.367 -34.778  0.00  0.00    +0.000 A 
ATOM    937  O2  U   B  15       1.642  19.622 -33.656  0.00  0.00    +0.000 OA
ATOM    938  N3  U   B  15       0.346  20.231 -35.404  0.00  0.00    +0.000 N 
ATOM    939  C4  U   B  15      -0.222  20.076 -36.658  0.00  0.00    +0.000 A 
ATOM    940  O4  U   B  15      -0.985  20.961 -37.075  0.00  0.00    +0.000 OA
ATOM    941  C5  U   B  15       0.152  18.879 -37.345  0.00  0.00    +0.000 A 
ATOM    942  C6  U   B  15       0.996  18.011 -36.760  0.00  0.00    +0.000 A 
ATOM    943  H   U   B  15       0.103  21.046 -34.909  0.00  0.00    +0.000 HD
ENDBRANCH  75 935
BRANCH 235 944
ATOM    944  N9  A   B  31      14.546   4.437   7.457  0.00  0.00    +0.000 N 
ATOM    945  C8  A   B  31      15.468   5.373   7.856  0.00  0.00    +0.000 A 
ATOM    946  N7  A   B  31      16.709   5.045   7.573  0.00  0.00    +0.000 NA
ATOM    947  C5  A   B  31      16.599   3.812   6.947  0.00  0.00    +0.000 A 
ATOM    948  C6  A   B  31      17.550   2.932   6.403  0.00  0.00    +0.000 A 
ATOM    949  N1  A   B  31      17.101   1.782   5.850  0.00  0.00    +0.000 NA
ATOM    950  C2  A   B  31      15.785   1.537   5.845  0.00  0.00    +0.000 A 
ATOM    951  N3  A   B  31      14.790   2.287   6.322  0.00  0.00    +0.000 NA
ATOM    952  C4  A   B  31      15.271   3.425   6.868  0.00  0.00    +0.000 A 
BRANCH 948 953
ATOM    953  N6  A   B  31      18.868   3.173   6.411  0.00  0.00    +0.000 N 
ATOM    954  H   A   B  31      19.490   2.521   6.015  0.00  0.00    +0.000 HD
ATOM    955  H   A   B  31      19.214   4.002   6.813  0.00  0.00    +0.000 HD
ENDBRANCH 948 953
ENDBRANCH 235 944
BRANCH  65 956
ATOM    956  N9  A   B  14       4.325  14.525 -27.478  0.00  0.00    +0.000 N 
ATOM    957  C8  A   B  14       3.677  13.316 -27.535  0.00  0.00    +0.000 A 
ATOM    958  N7  A   B  14       4.381  12.369 -28.114  0.00  0.00    +0.000 NA
ATOM    959  C5  A   B  14       5.571  12.999 -28.462  0.00  0.00    +0.000 A 
ATOM    960  C6  A   B  14       6.734  12.542 -29.103  0.00  0.00    +0.000 A 
ATOM    961  N1  A   B  14       7.738  13.424 -29.294  0.00  0.00    +0.000 NA
ATOM    962  C2  A   B  14       7.578  14.683 -28.868  0.00  0.00    +0.000 A 
ATOM    963  N3  A   B  14       6.529  15.234 -28.251  0.00  0.00    +0.000 NA
ATOM    964  C4  A   B  14       5.549  14.324 -28.075  0.00  0.00    +0.000 A 
BRANCH 960 965
ATOM    965  N6  A   B  14       6.898  11.281 -29.536  0.00  0.00    +0.000 N 
ATOM    966  H   A   B  14       7.737  11.018 -29.979  0.00  0.00    +0.000 HD
ATOM    967  H   A   B  14       6.179  10.620 -29.410  0.00  0.00    +0.000 HD
ENDBRANCH 960 965
ENDBRANCH  65 956
BRANCH 245 968
ATOM    968  N9  A   B  32      14.880   0.120   9.412  0.00  0.00    +0.000 N 
ATOM    969  C8  A   B  32      15.128   1.358   9.949  0.00  0.00    +0.000 A 
ATOM    970  N7  A   B  32      16.377   1.744   9.827  0.00  0.00    +0.000 NA
ATOM    971  C5  A   B  32      16.997   0.693   9.169  0.00  0.00    +0.000 A 
ATOM    972  C6  A   B  32      18.320   0.485   8.741  0.00  0.00    +0.000 A 
ATOM    973  N1  A   B  32      18.601  -0.676   8.111  0.00  0.00    +0.000 NA
ATOM    974  C2  A   B  32      17.619  -1.566   7.926  0.00  0.00    +0.000 A 
ATOM    975  N3  A   B  32      16.335  -1.484   8.281  0.00  0.00    +0.000 NA
ATOM    976  C4  A   B  32      16.086  -0.316   8.906  0.00  0.00    +0.000 A 
BRANCH 972 977
ATOM    977  N6  A   B  32      19.306   1.374   8.929  0.00  0.00    +0.000 N 
ATOM    978  H   A   B  32      20.215   1.176   8.608  0.00  0.00    +0.000 HD
ATOM    979  H   A   B  32      19.121   2.225   9.388  0.00  0.00    +0.000 HD
ENDBRANCH 972 977
ENDBRANCH 245 968
BRANCH 255 980
ATOM    980  N1  U   B  33      17.375  -3.152  11.698  0.00  0.00    +0.000 N 
ATOM    981  C2  U   B  33      18.692  -3.014  11.293  0.00  0.00    +0.000 A 
ATOM    982  O2  U   B  33      19.348  -3.940  10.848  0.00  0.00    +0.000 OA
ATOM    983  N3  U   B  33      19.216  -1.747  11.420  0.00  0.00    +0.000 N 
ATOM    984  C4  U   B  33      18.567  -0.630  11.908  0.00  0.00    +0.000 A 
ATOM    985  O4  U   B  33      19.169   0.446  11.966  0.00  0.00    +0.000 OA
ATOM    986  C5  U   B  33      17.212  -0.854  12.312  0.00  0.00    +0.000 A 
ATOM    987  C6  U   B  33      16.678  -2.076  12.194  0.00  0.00    +0.000 A 
ATOM    988  H   U   B  33      20.150  -1.625  11.133  0.00  0.00    +0.000 HD
ENDBRANCH 255 980
BRANCH 265 989
ATOM    989  N9  A   B  34      20.932  -4.372  14.479  0.00  0.00    +0.000 N 
ATOM    990  C8  A   B  34      19.747  -3.733  14.737  0.00  0.00    +0.000 A 
ATOM    991  N7  A   B  34      19.819  -2.424  14.624  0.00  0.00    +0.000 NA
ATOM    992  C5  A   B  34      21.140  -2.186  14.271  0.00  0.00    +0.000 A 
ATOM    993  C6  A   B  34      21.855  -1.005  14.003  0.00  0.00    +0.000 A 
ATOM    994  N1  A   B  34      23.159  -1.120  13.677  0.00  0.00    +0.000 NA
ATOM    995  C2  A   B  34      23.704  -2.340  13.627  0.00  0.00    +0.000 A 
ATOM    996  N3  A   B  34      23.134  -3.526  13.855  0.00  0.00    +0.000 NA
ATOM    997  C4  A   B  34      21.837  -3.376  14.177  0.00  0.00    +0.000 A 
BRANCH 993 998
ATOM    998  N6  A   B  34      21.306   0.220  14.055  0.00  0.00    +0.000 N 
ATOM    999  H   A   B  34      21.854   1.014  13.858  0.00  0.00    +0.000 HD
ATOM   1000  H   A   B  34      20.356   0.324  14.290  0.00  0.00    +0.000 HD
ENDBRANCH 993 998
ENDBRANCH 265 989
BRANCH  451001
ATOM   1001  N1  U   B  12       5.000   7.075 -22.742  0.00  0.00    +0.000 N 
ATOM   1002  C2  U   B  12       5.550   8.262 -22.281  0.00  0.00    +0.000 A 
ATOM   1003  O2  U   B  12       5.053   8.932 -21.391  0.00  0.00    +0.000 OA
ATOM   1004  N3  U   B  12       6.717   8.647 -22.908  0.00  0.00    +0.000 N 
ATOM   1005  C4  U   B  12       7.370   7.976 -23.923  0.00  0.00    +0.000 A 
ATOM   1006  O4  U   B  12       8.412   8.446 -24.387  0.00  0.00    +0.000 OA
ATOM   1007  C5  U   B  12       6.742   6.760 -24.342  0.00  0.00    +0.000 A 
ATOM   1008  C6  U   B  12       5.609   6.361 -23.749  0.00  0.00    +0.000 A 
ATOM   1009  H   U   B  12       7.127   9.487 -22.600  0.00  0.00    +0.000 HD
ENDBRANCH  451001
BRANCH 2751010
ATOM   1010  N9  A   B  35      23.891  -2.494  17.343  0.00  0.00    +0.000 N 
ATOM   1011  C8  A   B  35      22.551  -2.513  17.648  0.00  0.00    +0.000 A 
ATOM   1012  N7  A   B  35      21.963  -1.349  17.506  0.00  0.00    +0.000 NA
ATOM   1013  C5  A   B  35      22.984  -0.508  17.078  0.00  0.00    +0.000 A 
ATOM   1014  C6  A   B  35      23.010   0.858  16.747  0.00  0.00    +0.000 A 
ATOM   1015  N1  A   B  35      24.187   1.390  16.356  0.00  0.00    +0.000 NA
ATOM   1016  C2  A   B  35      25.265   0.598  16.304  0.00  0.00    +0.000 A 
ATOM   1017  N3  A   B  35      25.362  -0.698  16.586  0.00  0.00    +0.000 NA
ATOM   1018  C4  A   B  35      24.173  -1.196  16.970  0.00  0.00    +0.000 A 
BRANCH10141019
ATOM   1019  N6  A   B  35      21.929   1.654  16.802  0.00  0.00    +0.000 N 
ATOM   1020  H   A   B  35      22.005   2.605  16.558  0.00  0.00    +0.000 HD
ATOM   1021  H   A   B  35      21.061   1.286  17.086  0.00  0.00    +0.000 HD
ENDBRANCH10141019
ENDBRANCH 2751010
BRANCH  351022
ATOM   1022  N1  U   B  11       8.057   3.628 -21.941  0.00  0.00    +0.000 N 
ATOM   1023  C2  U   B  11       7.926   4.849 -21.294  0.00  0.00    +0.000 A 
ATOM   1024  O2  U   B  11       7.084   5.059 -20.440  0.00  0.00    +0.000 OA
ATOM   1025  N3  U   B  11       8.826   5.815 -21.686  0.00  0.00    +0.000 N 
ATOM   1026  C4  U   B  11       9.816   5.690 -22.639  0.00  0.00    +0.000 A 
ATOM   1027  O4  U   B  11      10.546   6.653 -22.884  0.00  0.00    +0.000 OA
ATOM   1028  C5  U   B  11       9.886   4.403 -23.261  0.00  0.00    +0.000 A 
ATOM   1029  C6  U   B  11       9.027   3.441 -22.899  0.00  0.00    +0.000 A 
ATOM   1030  H   U   B  11       8.755   6.689 -21.238  0.00  0.00    +0.000 HD
ENDBRANCH  351022
BRANCH 2851031
ATOM   1031  N1  U   B  36      25.201   0.990  19.945  0.00  0.00    +0.000 N 
ATOM   1032  C2  U   B  36      24.525   2.165  19.668  0.00  0.00    +0.000 A 
ATOM   1033  O2  U   B  36      25.080   3.173  19.264  0.00  0.00    +0.000 OA
ATOM   1034  N3  U   B  36      23.167   2.121  19.880  0.00  0.00    +0.000 N 
ATOM   1035  C4  U   B  36      22.432   1.044  20.333  0.00  0.00    +0.000 A 
ATOM   1036  O4  U   B  36      21.210   1.160  20.472  0.00  0.00    +0.000 OA
ATOM   1037  C5  U   B  36      23.200  -0.137  20.598  0.00  0.00    +0.000 A 
ATOM   1038  C6  U   B  36      24.527  -0.121  20.399  0.00  0.00    +0.000 A 
ATOM   1039  H   U   B  36      22.665   2.946  19.688  0.00  0.00    +0.000 HD
ENDBRANCH 2851031
BRANCH 4351040
ATOM   1040  N1  U   B  51      15.885   0.200   1.816  0.00  0.00    +0.000 N 
ATOM   1041  C2  U   B  51      15.807   1.458   2.395  0.00  0.00    +0.000 A 
ATOM   1042  O2  U   B  51      14.788   1.893   2.898  0.00  0.00    +0.000 OA
ATOM   1043  N3  U   B  51      16.975   2.187   2.364  0.00  0.00    +0.000 N 
ATOM   1044  C4  U   B  51      18.180   1.800   1.820  0.00  0.00    +0.000 A 
ATOM   1045  O4  U   B  51      19.143   2.570   1.868  0.00  0.00    +0.000 OA
ATOM   1046  C5  U   B  51      18.179   0.490   1.240  0.00  0.00    +0.000 A 
ATOM   1047  C6  U   B  51      17.060  -0.246   1.258  0.00  0.00    +0.000 A 
ATOM   1048  H   U   B  51      16.946   3.081   2.775  0.00  0.00    +0.000 HD
ENDBRANCH 4351040
BRANCH 4851049
ATOM   1049  N9  A   B  56      21.452  12.751 -11.381  0.00  0.00    +0.000 N 
ATOM   1050  C8  A   B  56      20.089  12.811 -11.232  0.00  0.00    +0.000 A 
ATOM   1051  N7  A   B  56      19.501  11.636 -11.283  0.00  0.00    +0.000 NA
ATOM   1052  C5  A   B  56      20.546  10.743 -11.481  0.00  0.00    +0.000 A 
ATOM   1053  C6  A   B  56      20.590   9.345 -11.620  0.00  0.00    +0.000 A 
ATOM   1054  N1  A   B  56      21.796   8.768 -11.802  0.00  0.00    +0.000 NA
ATOM   1055  C2  A   B  56      22.887   9.545 -11.843  0.00  0.00    +0.000 A 
ATOM   1056  N3  A   B  56      22.975  10.873 -11.723  0.00  0.00    +0.000 NA
ATOM   1057  C4  A   B  56      21.753  11.415 -11.542  0.00  0.00    +0.000 A 
BRANCH10531058
ATOM   1058  N6  A   B  56      19.499   8.563 -11.583  0.00  0.00    +0.000 N 
ATOM   1059  H   A   B  56      19.588   7.588 -11.686  0.00  0.00    +0.000 HD
ATOM   1060  H   A   B  56      18.610   8.965 -11.453  0.00  0.00    +0.000 HD
ENDBRANCH10531058
ENDBRANCH 4851049
BRANCH 4551061
ATOM   1061  N9  A   B  53      13.360   8.166  -1.747  0.00  0.00    +0.000 N 
ATOM   1062  C8  A   B  53      13.490   6.925  -2.318  0.00  0.00    +0.000 A 
ATOM   1063  N7  A   B  53      14.735   6.594  -2.592  0.00  0.00    +0.000 NA
ATOM   1064  C5  A   B  53      15.474   7.694  -2.179  0.00  0.00    +0.000 A 
ATOM   1065  C6  A   B  53      16.851   7.975  -2.196  0.00  0.00    +0.000 A 
ATOM   1066  N1  A   B  53      17.257   9.164  -1.705  0.00  0.00    +0.000 NA
ATOM   1067  C2  A   B  53      16.337  10.014  -1.230  0.00  0.00    +0.000 A 
ATOM   1068  N3  A   B  53      15.011   9.866  -1.158  0.00  0.00    +0.000 NA
ATOM   1069  C4  A   B  53      14.640   8.669  -1.655  0.00  0.00    +0.000 A 
BRANCH10651070
ATOM   1070  N6  A   B  53      17.775   7.125  -2.670  0.00  0.00    +0.000 N 
ATOM   1071  H   A   B  53      17.501   6.252  -3.033  0.00  0.00    +0.000 HD
ATOM   1072  H   A   B  53      18.727   7.374  -2.655  0.00  0.00    +0.000 HD
ENDBRANCH10651070
ENDBRANCH 4551061
BRANCH 4651073
ATOM   1073  N9  A   B  54      14.993  11.660  -4.304  0.00  0.00    +0.000 N 
ATOM   1074  C8  A   B  54      14.372  10.521  -4.752  0.00  0.00    +0.000 A 
ATOM   1075  N7  A   B  54      15.211   9.570  -5.110  0.00  0.00    +0.000 NA
ATOM   1076  C5  A   B  54      16.464  10.121  -4.888  0.00  0.00    +0.000 A 
ATOM   1077  C6  A   B  54      17.767   9.625  -5.069  0.00  0.00    +0.000 A 
ATOM   1078  N1  A   B  54      18.798  10.433  -4.747  0.00  0.00    +0.000 NA
ATOM   1079  C2  A   B  54      18.534  11.658  -4.277  0.00  0.00    +0.000 A 
ATOM   1080  N3  A   B  54      17.350  12.240  -4.060  0.00  0.00    +0.000 NA
ATOM   1081  C4  A   B  54      16.345  11.407  -4.391  0.00  0.00    +0.000 A 
BRANCH10771082
ATOM   1082  N6  A   B  54      18.034   8.397  -5.541  0.00  0.00    +0.000 N 
ATOM   1083  H   A   B  54      17.296   7.791  -5.782  0.00  0.00    +0.000 HD
ATOM   1084  H   A   B  54      18.967   8.102  -5.646  0.00  0.00    +0.000 HD
ENDBRANCH10771082
ENDBRANCH 4651073
BRANCH 4751085
ATOM   1085  N9  A   B  55      18.157  12.954  -7.652  0.00  0.00    +0.000 N 
ATOM   1086  C8  A   B  55      17.039  12.194  -7.900  0.00  0.00    +0.000 A 
ATOM   1087  N7  A   B  55      17.302  10.937  -8.172  0.00  0.00    +0.000 NA
ATOM   1088  C5  A   B  55      18.686  10.864  -8.098  0.00  0.00    +0.000 A 
ATOM   1089  C6  A   B  55      19.589   9.802  -8.280  0.00  0.00    +0.000 A 
ATOM   1090  N1  A   B  55      20.907  10.063  -8.133  0.00  0.00    +0.000 NA
ATOM   1091  C2  A   B  55      21.287  11.309  -7.822  0.00  0.00    +0.000 A 
ATOM   1092  N3  A   B  55      20.532  12.391  -7.622  0.00  0.00    +0.000 NA
ATOM   1093  C4  A   B  55      19.226  12.093  -7.778  0.00  0.00    +0.000 A 
BRANCH10891094
ATOM   1094  N6  A   B  55      19.211   8.553  -8.593  0.00  0.00    +0.000 N 
ATOM   1095  H   A   B  55      19.888   7.848  -8.708  0.00  0.00    +0.000 HD
ATOM   1096  H   A   B  55      18.256   8.342  -8.707  0.00  0.00    +0.000 HD
ENDBRANCH10891094
ENDBRANCH 4751085
BRANCH  111097
ATOM   1097  N6  A   B   9      22.964  -2.736 -32.097  0.00  0.00    +0.000 NA
ATOM   1098  H   A   B   9      23.908  -2.431 -32.336  0.00  0.00    +0.000 HD
ATOM   1099  H   A   B   9      22.289  -2.053 -32.441  0.00  0.00    +0.000 HD
ENDBRANCH  111097
BRANCH 5461100
ATOM   1100  OP2 C   B  62      17.140   3.053 -31.488  0.00  0.00    +0.000 OA
ATOM   1101  H   C   B  62      16.490   2.476 -31.919  0.00  0.00    +0.000 HD
ENDBRANCH 5461100
BRANCH 5531102
ATOM   1102  O2' C   B  62      21.239   2.147 -37.602  0.00  0.00    +0.000 OA
ATOM   1103  H   C   B  62      21.487   3.069 -37.429  0.00  0.00    +0.000 HD
ENDBRANCH 5531102
BRANCH 5341104
ATOM   1104  O2' A   B  61      21.194   5.314 -32.488  0.00  0.00    +0.000 OA
ATOM   1105  H   A   B  61      21.251   6.147 -31.994  0.00  0.00    +0.000 HD
ENDBRANCH 5341104
BRANCH 5261106
ATOM   1106  OP1 A   B  61      17.271   4.616 -26.428  0.00  0.00    +0.000 OA
ATOM   1107  H   A   B  61      16.865   5.214 -27.075  0.00  0.00    +0.000 HD
ENDBRANCH 5261106
BRANCH 5241108
ATOM   1108  O2' G   B  60      18.116   1.167 -23.857  0.00  0.00    +0.000 OA
ATOM   1109  H   G   B  60      19.005   0.779 -23.875  0.00  0.00    +0.000 HD
ENDBRANCH 5241108
BRANCH 5161110
ATOM   1110  OP2 G   B  60      21.757   7.633 -24.633  0.00  0.00    +0.000 OA
ATOM   1111  H   G   B  60      21.043   7.831 -25.259  0.00  0.00    +0.000 HD
ENDBRANCH 5161110
BRANCH 4661112
ATOM   1112  OP1 A   B  55      11.932  16.333  -8.143  0.00  0.00    +0.000 OA
ATOM   1113  H   A   B  55      12.165  16.538  -9.062  0.00  0.00    +0.000 HD
ENDBRANCH 4661112
BRANCH 4261114
ATOM   1114  OP2 U   B  51      18.965  -2.929  -1.263  0.00  0.00    +0.000 OA
ATOM   1115  H   U   B  51      18.824  -2.359  -2.035  0.00  0.00    +0.000 HD
ENDBRANCH 4261114
BRANCH 4341116
ATOM   1116  O2' U   B  51      12.363  -0.460   1.184  0.00  0.00    +0.000 OA
ATOM   1117  H   U   B  51      12.284  -1.384   1.469  0.00  0.00    +0.000 HD
ENDBRANCH 4341116
BRANCH 4361118
ATOM   1118  OP2 U   B  52      14.346  -0.185  -3.128  0.00  0.00    +0.000 OA
ATOM   1119  H   U   B  52      14.325   0.383  -3.914  0.00  0.00    +0.000 HD
ENDBRANCH 4361118
BRANCH 4441120
ATOM   1120  O2' U   B  52      10.188   5.059   0.121  0.00  0.00    +0.000 OA
ATOM   1121  H   U   B  52       9.744   4.289   0.509  0.00  0.00    +0.000 HD
ENDBRANCH 4441120
BRANCH 4461122
ATOM   1122  OP1 A   B  53       8.679   4.620  -4.435  0.00  0.00    +0.000 OA
ATOM   1123  H   A   B  53       8.733   5.072  -5.291  0.00  0.00    +0.000 HD
ENDBRANCH 4461122
BRANCH 4541124
ATOM   1124  O2' A   B  53      10.997  10.936  -1.624  0.00  0.00    +0.000 OA
ATOM   1125  H   A   B  53      10.289  10.564  -1.075  0.00  0.00    +0.000 HD
ENDBRANCH 4541124
BRANCH 4561126
ATOM   1126  OP1 A   B  54       8.743  10.952  -5.883  0.00  0.00    +0.000 OA
ATOM   1127  H   A   B  54       8.878  11.229  -6.803  0.00  0.00    +0.000 HD
ENDBRANCH 4561126
BRANCH 4641128
ATOM   1128  O2' A   B  54      14.429  15.260  -4.292  0.00  0.00    +0.000 OA
ATOM   1129  H   A   B  54      13.752  15.351  -3.603  0.00  0.00    +0.000 HD
ENDBRANCH 4641128
BRANCH 5141130
ATOM   1130  O2' A   B  59      24.026   4.172 -21.878  0.00  0.00    +0.000 OA
ATOM   1131  H   A   B  59      24.947   4.477 -21.872  0.00  0.00    +0.000 HD
ENDBRANCH 5141130
BRANCH 4741132
ATOM   1132  O2' A   B  55      19.521  16.333  -7.817  0.00  0.00    +0.000 OA
ATOM   1133  H   A   B  55      18.888  16.822  -7.269  0.00  0.00    +0.000 HD
ENDBRANCH 4741132
BRANCH 4761134
ATOM   1134  OP2 A   B  56      16.897  15.716 -12.006  0.00  0.00    +0.000 OA
ATOM   1135  H   A   B  56      16.894  15.645 -12.973  0.00  0.00    +0.000 HD
ENDBRANCH 4761134
BRANCH 4841136
ATOM   1136  O2' A   B  56      24.187  14.740 -12.733  0.00  0.00    +0.000 OA
ATOM   1137  H   A   B  56      24.262  15.446 -12.072  0.00  0.00    +0.000 HD
ENDBRANCH 4841136
BRANCH 4861138
ATOM   1138  OP2 A   B  57      20.286  15.903 -15.470  0.00  0.00    +0.000 OA
ATOM   1139  H   A   B  57      19.915  15.837 -16.364  0.00  0.00    +0.000 HD
ENDBRANCH 4861138
BRANCH 4941140
ATOM   1140  O2' A   B  57      25.240  11.163 -18.287  0.00  0.00    +0.000 OA
ATOM   1141  H   A   B  57      25.898  11.690 -17.808  0.00  0.00    +0.000 HD
ENDBRANCH 4941140
BRANCH 4961142
ATOM   1142  OP2 C   B  58      21.918  14.771 -19.228  0.00  0.00    +0.000 OA
ATOM   1143  H   C   B  58      21.409  15.529 -19.556  0.00  0.00    +0.000 HD
ENDBRANCH 4961142
BRANCH 5041144
ATOM   1144  O2' C   B  58      27.183  13.741 -23.291  0.00  0.00    +0.000 OA
ATOM   1145  H   C   B  58      27.352  12.935 -23.803  0.00  0.00    +0.000 HD
ENDBRANCH 5041144
BRANCH 1261146
ATOM   1146  OP1 A   B  21       9.114  11.272 -11.239  0.00  0.00    +0.000 OA
ATOM   1147  H   A   B  21       9.313  12.200 -11.038  0.00  0.00    +0.000 HD
ENDBRANCH 1261146
BRANCH 5061148
ATOM   1148  OP1 A   B  59      25.253  10.731 -20.353  0.00  0.00    +0.000 OA
ATOM   1149  H   A   B  59      24.360  10.539 -20.681  0.00  0.00    +0.000 HD
ENDBRANCH 5061148
BRANCH 2561150
ATOM   1150  OP1 A   B  34      15.514  -7.111  16.940  0.00  0.00    +0.000 OA
ATOM   1151  H   A   B  34      15.770  -7.960  16.548  0.00  0.00    +0.000 HD
ENDBRANCH 2561150
BRANCH 2241152
ATOM   1152  O2' A   B  30      12.802   8.867   6.852  0.00  0.00    +0.000 OA
ATOM   1153  H   A   B  30      12.612   9.792   6.630  0.00  0.00    +0.000 HD
ENDBRANCH 2241152
BRANCH  761154
ATOM   1154  OP2 C   B  16       6.132  15.392 -31.961  0.00  0.00    +0.000 OA
ATOM   1155  H   C   B  16       6.071  16.358 -31.893  0.00  0.00    +0.000 HD
ENDBRANCH  761154
BRANCH  741156
ATOM   1156  O2' U   B  15       4.680  17.938 -35.570  0.00  0.00    +0.000 OA
ATOM   1157  H   U   B  15       4.777  17.080 -36.011  0.00  0.00    +0.000 HD
ENDBRANCH  741156
BRANCH 2261158
ATOM   1158  OP1 A   B  31      13.685   9.330  11.560  0.00  0.00    +0.000 OA
ATOM   1159  H   A   B  31      12.739   9.373  11.349  0.00  0.00    +0.000 HD
ENDBRANCH 2261158
BRANCH 2341160
ATOM   1160  O2' A   B  31      11.304   3.145   8.497  0.00  0.00    +0.000 OA
ATOM   1161  H   A   B  31      10.717   3.881   8.262  0.00  0.00    +0.000 HD
ENDBRANCH 2341160
BRANCH  661162
ATOM   1162  OP2 U   B  15      -0.811  16.493 -29.699  0.00  0.00    +0.000 OA
ATOM   1163  H   U   B  15      -1.331  16.345 -30.504  0.00  0.00    +0.000 HD
ENDBRANCH  661162
BRANCH 2361164
ATOM   1164  OP1 A   B  32      11.197   3.637  13.322  0.00  0.00    +0.000 OA
ATOM   1165  H   A   B  32      10.390   3.225  12.975  0.00  0.00    +0.000 HD
ENDBRANCH 2361164
BRANCH 2441166
ATOM   1166  O2' A   B  32      12.673  -2.713  10.052  0.00  0.00    +0.000 OA
ATOM   1167  H   A   B  32      11.823  -2.372   9.733  0.00  0.00    +0.000 HD
ENDBRANCH 2441166
BRANCH  641168
ATOM   1168  O2' A   B  14       3.660  18.097 -27.532  0.00  0.00    +0.000 OA
ATOM   1169  H   A   B  14       3.221  18.230 -26.677  0.00  0.00    +0.000 HD
ENDBRANCH  641168
BRANCH  561170
ATOM   1170  OP1 A   B  14      -2.080  13.633 -26.982  0.00  0.00    +0.000 OA
ATOM   1171  H   A   B  14      -2.230  13.851 -27.915  0.00  0.00    +0.000 HD
ENDBRANCH  561170
BRANCH 2461172
ATOM   1172  OP1 U   B  33      11.714  -2.538  14.826  0.00  0.00    +0.000 OA
ATOM   1173  H   U   B  33      11.372  -3.334  14.390  0.00  0.00    +0.000 HD
ENDBRANCH 2461172
BRANCH 2541174
ATOM   1174  O2' U   B  33      17.129  -6.736  12.347  0.00  0.00    +0.000 OA
ATOM   1175  H   U   B  33      16.303  -6.962  11.891  0.00  0.00    +0.000 HD
ENDBRANCH 2541174
BRANCH  541176
ATOM   1176  O2' C   B  13       1.168  13.918 -23.418  0.00  0.00    +0.000 OA
ATOM   1177  H   C   B  13       0.682  13.471 -22.708  0.00  0.00    +0.000 HD
ENDBRANCH  541176
BRANCH 2161178
ATOM   1178  OP1 A   B  30      18.353  13.248   8.795  0.00  0.00    +0.000 OA
ATOM   1179  H   A   B  30      19.117  13.840   8.871  0.00  0.00    +0.000 HD
ENDBRANCH 2161178
BRANCH 2641180
ATOM   1180  O2' A   B  34      22.659  -7.359  15.648  0.00  0.00    +0.000 OA
ATOM   1181  H   A   B  34      22.213  -8.058  15.145  0.00  0.00    +0.000 HD
ENDBRANCH 2641180
BRANCH  461182
ATOM   1182  OP1 C   B  13      -1.175   7.349 -25.649  0.00  0.00    +0.000 OA
ATOM   1183  H   C   B  13      -1.437   7.768 -26.484  0.00  0.00    +0.000 HD
ENDBRANCH  461182
BRANCH  441184
ATOM   1184  O2' U   B  12       1.592   7.421 -21.465  0.00  0.00    +0.000 OA
ATOM   1185  H   U   B  12       1.386   6.505 -21.222  0.00  0.00    +0.000 HD
ENDBRANCH  441184
BRANCH 2661186
ATOM   1186  OP1 A   B  35      20.951  -8.228  20.052  0.00  0.00    +0.000 OA
ATOM   1187  H   A   B  35      21.441  -9.012  19.759  0.00  0.00    +0.000 HD
ENDBRANCH 2661186
BRANCH 2741188
ATOM   1188  O2' A   B  35      27.090  -4.079  18.087  0.00  0.00    +0.000 OA
ATOM   1189  H   A   B  35      26.898  -5.006  17.878  0.00  0.00    +0.000 HD
ENDBRANCH 2741188
BRANCH  361190
ATOM   1190  OP2 U   B  12       4.873   3.084 -25.714  0.00  0.00    +0.000 OA
ATOM   1191  H   U   B  12       5.425   2.583 -26.335  0.00  0.00    +0.000 HD
ENDBRANCH  361190
BRANCH  341192
ATOM   1192  O2' U   B  11       4.761   2.168 -21.418  0.00  0.00    +0.000 OA
ATOM   1193  H   U   B  11       4.986   1.271 -21.124  0.00  0.00    +0.000 HD
ENDBRANCH  341192
BRANCH 2761194
ATOM   1194  OP1 U   B  36      27.174  -4.438  22.941  0.00  0.00    +0.000 OA
ATOM   1195  H   U   B  36      28.032  -4.400  22.491  0.00  0.00    +0.000 HD
ENDBRANCH 2761194
BRANCH 2841196
ATOM   1196  O2' U   B  36      28.602   2.239  20.378  0.00  0.00    +0.000 OA
ATOM   1197  H   U   B  36      29.115   1.587  19.876  0.00  0.00    +0.000 HD
ENDBRANCH 2841196
BRANCH  261198
ATOM   1198  OP2 U   B  11      10.066   1.235 -26.478  0.00  0.00    +0.000 OA
ATOM   1199  H   U   B  11      10.694   0.896 -27.135  0.00  0.00    +0.000 HD
ENDBRANCH  261198
BRANCH 2861200
ATOM   1200  OP1 A   B  37      29.861   0.632  24.911  0.00  0.00    +0.000 OA
ATOM   1201  H   A   B  37      30.597   1.134  24.528  0.00  0.00    +0.000 HD
ENDBRANCH 2861200
BRANCH 2941202
ATOM   1202  O2' A   B  37      28.122   7.634  23.867  0.00  0.00    +0.000 OA
ATOM   1203  H   A   B  37      28.916   7.390  23.366  0.00  0.00    +0.000 HD
ENDBRANCH 2941202
BRANCH 1761204
ATOM   1204  OP1 U   B  26      28.705   2.312  -7.744  0.00  0.00    +0.000 OA
ATOM   1205  H   U   B  26      29.455   2.773  -8.151  0.00  0.00    +0.000 HD
ENDBRANCH 1761204
BRANCH 1341206
ATOM   1206  O2' A   B  21       7.203   4.900 -14.414  0.00  0.00    +0.000 OA
ATOM   1207  H   A   B  21       6.415   5.415 -14.181  0.00  0.00    +0.000 HD
ENDBRANCH 1341206
BRANCH 1241208
ATOM   1208  O2' A   B  20       6.006  11.391 -15.181  0.00  0.00    +0.000 OA
ATOM   1209  H   A   B  20       5.787  12.328 -15.061  0.00  0.00    +0.000 HD
ENDBRANCH 1241208
BRANCH 1361210
ATOM   1210  OP1 C   B  22       9.385   4.879 -10.047  0.00  0.00    +0.000 OA
ATOM   1211  H   C   B  22       8.741   4.165 -10.172  0.00  0.00    +0.000 HD
ENDBRANCH 1361210
BRANCH 1441212
ATOM   1212  O2' C   B  22      11.429   0.272 -15.358  0.00  0.00    +0.000 OA
ATOM   1213  H   C   B  22      10.468   0.236 -15.233  0.00  0.00    +0.000 HD
ENDBRANCH 1441212
BRANCH 1161214
ATOM   1214  OP1 A   B  20      11.196  17.009 -15.389  0.00  0.00    +0.000 OA
ATOM   1215  H   A   B  20      12.010  17.420 -15.720  0.00  0.00    +0.000 HD
ENDBRANCH 1161214
BRANCH 1461216
ATOM   1216  OP1 U   B  23      12.820  -0.509 -10.756  0.00  0.00    +0.000 OA
ATOM   1217  H   U   B  23      12.618  -1.324 -11.242  0.00  0.00    +0.000 HD
ENDBRANCH 1461216
BRANCH 1541218
ATOM   1218  O2' U   B  23      17.714  -1.752 -15.898  0.00  0.00    +0.000 OA
ATOM   1219  H   U   B  23      16.919  -2.279 -16.075  0.00  0.00    +0.000 HD
ENDBRANCH 1541218
BRANCH 1561220
ATOM   1220  OP2 U   B  24      17.499  -0.566 -11.138  0.00  0.00    +0.000 OA
ATOM   1221  H   U   B  24      17.354   0.200 -11.715  0.00  0.00    +0.000 HD
ENDBRANCH 1561220
BRANCH 1641222
ATOM   1222  O2' U   B  24      23.910   0.231 -14.784  0.00  0.00    +0.000 OA
ATOM   1223  H   U   B  24      23.613  -0.550 -15.277  0.00  0.00    +0.000 HD
ENDBRANCH 1641222
BRANCH 1141224
ATOM   1224  O2' A   B  19       7.533  16.475 -18.575  0.00  0.00    +0.000 OA
ATOM   1225  H   A   B  19       7.460  17.394 -18.878  0.00  0.00    +0.000 HD
ENDBRANCH 1141224
BRANCH 1661226
ATOM   1226  OP2 U   B  25      22.368  -0.380 -10.177  0.00  0.00    +0.000 OA
ATOM   1227  H   U   B  25      21.909   0.339 -10.639  0.00  0.00    +0.000 HD
ENDBRANCH 1661226
BRANCH 1741228
ATOM   1228  O2' U   B  25      27.593   4.633 -11.866  0.00  0.00    +0.000 OA
ATOM   1229  H   U   B  25      27.860   3.961 -12.513  0.00  0.00    +0.000 HD
ENDBRANCH 1741228
BRANCH 1061230
ATOM   1230  OP1 A   B  19      14.232  18.646 -20.283  0.00  0.00    +0.000 OA
ATOM   1231  H   A   B  19      15.102  18.891 -20.635  0.00  0.00    +0.000 HD
ENDBRANCH 1061230
BRANCH 4161232
ATOM   1232  OP2 U   B  50      23.801  -3.136   1.462  0.00  0.00    +0.000 OA
ATOM   1233  H   U   B  50      23.531  -2.676   0.652  0.00  0.00    +0.000 HD
ENDBRANCH 4161232
BRANCH 1841234
ATOM   1234  O2' U   B  26      27.804   9.539  -7.839  0.00  0.00    +0.000 OA
ATOM   1235  H   U   B  26      28.457   9.257  -8.499  0.00  0.00    +0.000 HD
ENDBRANCH 1841234
BRANCH 1041236
ATOM   1236  O2' G   B  18      10.740  19.427 -23.603  0.00  0.00    +0.000 OA
ATOM   1237  H   G   B  18      11.224  20.086 -24.125  0.00  0.00    +0.000 HD
ENDBRANCH 1041236
BRANCH 1861238
ATOM   1238  OP1 U   B  27      29.598   7.474  -3.863  0.00  0.00    +0.000 OA
ATOM   1239  H   U   B  27      30.116   6.669  -4.020  0.00  0.00    +0.000 HD
ENDBRANCH 1861238
BRANCH 1941240
ATOM   1240  O2' U   B  27      25.315  13.335  -3.523  0.00  0.00    +0.000 OA
ATOM   1241  H   U   B  27      26.057  13.498  -4.126  0.00  0.00    +0.000 HD
ENDBRANCH 1941240
BRANCH  961242
ATOM   1242  OP1 G   B  18      17.146  18.345 -27.736  0.00  0.00    +0.000 OA
ATOM   1243  H   G   B  18      17.481  17.925 -28.544  0.00  0.00    +0.000 HD
ENDBRANCH  961242
BRANCH 1961244
ATOM   1244  OP1 U   B  28      27.753  11.855   0.386  0.00  0.00    +0.000 OA
ATOM   1245  H   U   B  28      28.605  11.437   0.185  0.00  0.00    +0.000 HD
ENDBRANCH 1961244
BRANCH 2041246
ATOM   1246  O2' U   B  28      21.055  14.757   0.747  0.00  0.00    +0.000 OA
ATOM   1247  H   U   B  28      21.657  15.346   0.266  0.00  0.00    +0.000 HD
ENDBRANCH 2041246
BRANCH  941248
ATOM   1248  O2' C   B  17      14.081  21.906 -28.450  0.00  0.00    +0.000 OA
ATOM   1249  H   C   B  17      14.292  22.123 -29.372  0.00  0.00    +0.000 HD
ENDBRANCH  941248
BRANCH 2061250
ATOM   1250  OP1 A   B  29      23.576  14.173   4.835  0.00  0.00    +0.000 OA
ATOM   1251  H   A   B  29      24.533  14.287   4.723  0.00  0.00    +0.000 HD
ENDBRANCH 2061250
BRANCH 2141252
ATOM   1252  O2' A   B  29      16.344  13.157   4.412  0.00  0.00    +0.000 OA
ATOM   1253  H   A   B  29      16.595  14.040   4.099  0.00  0.00    +0.000 HD
ENDBRANCH 2141252
BRANCH  861254
ATOM   1254  OP2 C   B  17      11.240  15.689 -31.233  0.00  0.00    +0.000 OA
ATOM   1255  H   C   B  17      10.957  14.942 -31.784  0.00  0.00    +0.000 HD
ENDBRANCH  861254
BRANCH  841256
ATOM   1256  O2' C   B  16      10.897  19.645 -34.403  0.00  0.00    +0.000 OA
ATOM   1257  H   C   B  16      10.556  19.128 -35.150  0.00  0.00    +0.000 HD
ENDBRANCH  841256
BRANCH 3661258
ATOM   1258  OP2 U   B  45      19.483   9.838  15.958  0.00  0.00    +0.000 OA
ATOM   1259  H   U   B  45      19.942   9.348  15.258  0.00  0.00    +0.000 HD
ENDBRANCH 3661258
BRANCH 3161260
ATOM   1260  OP2 C   B  40      22.056   7.323  32.132  0.00  0.00    +0.000 OA
ATOM   1261  H   C   B  40      22.585   8.051  31.770  0.00  0.00    +0.000 HD
ENDBRANCH 3161260
BRANCH 3241262
ATOM   1262  O2' C   B  40      18.879   0.520  32.618  0.00  0.00    +0.000 OA
ATOM   1263  H   C   B  40      19.727   0.315  33.043  0.00  0.00    +0.000 HD
ENDBRANCH 3241262
BRANCH 3261264
ATOM   1264  OP2 U   B  41      20.326   3.432  28.815  0.00  0.00    +0.000 OA
ATOM   1265  H   U   B  41      20.102   3.711  27.913  0.00  0.00    +0.000 HD
ENDBRANCH 3261264
BRANCH 3341266
ATOM   1266  O2' U   B  41      13.217   1.345  28.859  0.00  0.00    +0.000 OA
ATOM   1267  H   U   B  41      13.543   0.562  29.330  0.00  0.00    +0.000 HD
ENDBRANCH 3341266
BRANCH 3361268
ATOM   1268  OP2 U   B  42      16.948   2.100  25.598  0.00  0.00    +0.000 OA
ATOM   1269  H   U   B  42      17.198   2.435  24.723  0.00  0.00    +0.000 HD
ENDBRANCH 3361268
BRANCH 3441270
ATOM   1270  O2' U   B  42      10.834   6.075  24.220  0.00  0.00    +0.000 OA
ATOM   1271  H   U   B  42      10.363   5.301  24.568  0.00  0.00    +0.000 HD
ENDBRANCH 3441270
BRANCH  241272
ATOM   1272  O2' U   B  10      10.651  -0.930 -22.167  0.00  0.00    +0.000 OA
ATOM   1273  H   U   B  10      11.285  -1.649 -22.315  0.00  0.00    +0.000 HD
ENDBRANCH  241272
BRANCH 3541274
ATOM   1274  O2' A   B  43      13.981  11.235  21.215  0.00  0.00    +0.000 OA
ATOM   1275  H   A   B  43      13.033  11.059  21.323  0.00  0.00    +0.000 HD
ENDBRANCH 3541274
BRANCH 3561276
ATOM   1276  OP2 C   B  44      15.375   7.410  18.266  0.00  0.00    +0.000 OA
ATOM   1277  H   C   B  44      16.000   7.120  17.583  0.00  0.00    +0.000 HD
ENDBRANCH 3561276
BRANCH 3641278
ATOM   1278  O2' C   B  44      20.255  12.781  19.856  0.00  0.00    +0.000 OA
ATOM   1279  H   C   B  44      19.456  13.329  19.906  0.00  0.00    +0.000 HD
ENDBRANCH 3641278
BRANCH 3461280
ATOM   1280  OP2 A   B  43      14.617   3.861  21.744  0.00  0.00    +0.000 OA
ATOM   1281  H   A   B  43      15.237   3.952  21.003  0.00  0.00    +0.000 HD
ENDBRANCH 3461280
BRANCH 3741282
ATOM   1282  O2' U   B  45      26.641  10.326  17.837  0.00  0.00    +0.000 OA
ATOM   1283  H   U   B  45      26.381  11.151  18.276  0.00  0.00    +0.000 HD
ENDBRANCH 3741282
BRANCH 3761284
ATOM   1284  OP2 U   B  46      23.785  10.137  13.827  0.00  0.00    +0.000 OA
ATOM   1285  H   U   B  46      23.744   9.821  12.911  0.00  0.00    +0.000 HD
ENDBRANCH 3761284
BRANCH 3841286
ATOM   1286  O2' U   B  46      29.653   5.659  14.735  0.00  0.00    +0.000 OA
ATOM   1287  H   U   B  46      30.008   6.425  15.212  0.00  0.00    +0.000 HD
ENDBRANCH 3841286
BRANCH 3861288
ATOM   1288  OP2 U   B  47      27.248   7.152  10.877  0.00  0.00    +0.000 OA
ATOM   1289  H   U   B  47      27.015   6.852   9.984  0.00  0.00    +0.000 HD
ENDBRANCH 3861288
BRANCH 3941290
ATOM   1290  O2' U   B  47      29.942   0.233  11.518  0.00  0.00    +0.000 OA
ATOM   1291  H   U   B  47      30.657   0.674  12.003  0.00  0.00    +0.000 HD
ENDBRANCH 3941290
BRANCH 3961292
ATOM   1292  OP2 A   B  48      28.528   3.103   7.917  0.00  0.00    +0.000 OA
ATOM   1293  H   A   B  48      28.152   3.067   7.024  0.00  0.00    +0.000 HD
ENDBRANCH 3961292
BRANCH 4041294
ATOM   1294  O2' A   B  48      27.160  -4.205   8.049  0.00  0.00    +0.000 OA
ATOM   1295  H   A   B  48      28.040  -4.251   8.455  0.00  0.00    +0.000 HD
ENDBRANCH 4041294
BRANCH 4061296
ATOM   1296  OP2 U   B  49      27.253  -0.730   4.682  0.00  0.00    +0.000 OA
ATOM   1297  H   U   B  49      26.852  -0.476   3.836  0.00  0.00    +0.000 HD
ENDBRANCH 4061296
BRANCH 4141298
ATOM   1298  O2' U   B  49      22.079  -6.078   4.942  0.00  0.00    +0.000 OA
ATOM   1299  H   U   B  49      22.824  -6.606   5.270  0.00  0.00    +0.000 HD
ENDBRANCH 4141298
BRANCH 4241300
ATOM   1300  O2' U   B  50      16.564  -4.576   2.567  0.00  0.00    +0.000 OA
ATOM   1301  H   U   B  50      16.921  -5.439   2.829  0.00  0.00    +0.000 HD
ENDBRANCH 4241300
BRANCH   51302
ATOM   1302  O2' A   B   9      19.067  -2.294 -25.172  0.00  0.00    +0.000 OA
ATOM   1303  H   A   B   9      19.059  -3.104 -24.639  0.00  0.00    +0.000 HD
ENDBRANCH   51302
BRANCH  161304
ATOM   1304  OP2 U   B  10      16.530  -0.612 -27.056  0.00  0.00    +0.000 OA
ATOM   1305  H   U   B  10      17.023  -0.880 -27.847  0.00  0.00    +0.000 HD
ENDBRANCH  161304
BRANCH 3141306
ATOM   1306  O2' U   B  39      26.308   4.879  33.385  0.00  0.00    +0.000 OA
ATOM   1307  H   U   B  39      26.796   5.267  32.642  0.00  0.00    +0.000 HD
ENDBRANCH 3141306
BRANCH 2961308
ATOM   1308  OP1 U   B  38      29.484   6.206  28.277  0.00  0.00    +0.000 OA
ATOM   1309  H   U   B  38      29.924   7.026  28.004  0.00  0.00    +0.000 HD
ENDBRANCH 2961308
BRANCH 3041310
ATOM   1310  O2' U   B  38      24.707  11.589  26.842  0.00  0.00    +0.000 OA
ATOM   1311  H   U   B  38      25.524  11.724  26.337  0.00  0.00    +0.000 HD
ENDBRANCH 3041310
BRANCH 3061312
ATOM   1312  OP2 U   B  39      26.026  12.089  30.809  0.00  0.00    +0.000 OA
ATOM   1313  H   U   B  39      25.780  12.844  30.252  0.00  0.00    +0.000 HD
ENDBRANCH 3061312
BRANCH   11314
ATOM   1314  C5' A   B   9      17.187  -5.958 -26.853  0.00  0.00    +0.000 C 
BRANCH13141315
ATOM   1315  O5' A   B   9      16.984  -5.875 -28.233  0.00  0.00    +0.000 OA
BRANCH13151316
ATOM   1316  P   A   B   9      17.141  -7.178 -29.147  0.00  0.00    +0.000 P 
ATOM   1317  OP1 A   B   9      18.161  -6.872 -30.191  0.00  0.00    +0.000 OA
BRANCH13161318
ATOM   1318  OP2 A   B   9      17.333  -8.342 -28.262  0.00  0.00    +0.000 OA
ATOM   1319  H   A   B   9      17.430  -9.144 -28.799  0.00  0.00    +0.000 HD
ENDBRANCH13161318
BRANCH13161320
ATOM   1320  O3' U   B   8      15.727  -7.325 -29.851  0.00  0.00    +0.000 OA
BRANCH13201323
ATOM   1321  C4' U   B   8      13.629  -8.542 -29.605  0.00  0.00    +0.000 C 
ATOM   1322  O4' U   B   8      12.269  -8.126 -29.326  0.00  0.00    +0.000 OA
ATOM   1323  C3' U   B   8      14.470  -7.344 -29.199  0.00  0.00    +0.000 C 
ATOM   1324  C2' U   B   8      13.590  -6.162 -29.575  0.00  0.00    +0.000 C 
ATOM   1325  C1' U   B   8      12.194  -6.717 -29.267  0.00  0.00    +0.000 C 
BRANCH13251326
ATOM   1326  N1  U   B   8      11.719  -6.325 -27.923  0.00  0.00    +0.000 N 
ATOM   1327  C2  U   B   8      11.121  -5.086 -27.800  0.00  0.00    +0.000 A 
ATOM   1328  O2  U   B   8      10.974  -4.323 -28.740  0.00  0.00    +0.000 OA
ATOM   1329  N3  U   B   8      10.697  -4.773 -26.533  0.00  0.00    +0.000 N 
ATOM   1330  C4  U   B   8      10.810  -5.556 -25.401  0.00  0.00    +0.000 A 
ATOM   1331  O4  U   B   8      10.381  -5.134 -24.329  0.00  0.00    +0.000 OA
ATOM   1332  C5  U   B   8      11.441  -6.821 -25.615  0.00  0.00    +0.000 A 
ATOM   1333  C6  U   B   8      11.862  -7.153 -26.838  0.00  0.00    +0.000 A 
ATOM   1334  H   U   B   8      10.266  -3.895 -26.419  0.00  0.00    +0.000 HD
ENDBRANCH13251326
BRANCH13241335
ATOM   1335  O2' U   B   8      13.665  -5.890 -30.966  0.00  0.00    +0.000 OA
ATOM   1336  H   U   B   8      13.430  -6.688 -31.465  0.00  0.00    +0.000 HD
ENDBRANCH13241335
BRANCH13211337
ATOM   1337  C5' U   B   8      13.919  -9.830 -28.868  0.00  0.00    +0.000 C 
BRANCH13371338
ATOM   1338  O5' U   B   8      13.674  -9.695 -27.478  0.00  0.00    +0.000 OA
BRANCH13381339
ATOM   1339  P   U   B   8      13.424 -10.972 -26.557  0.00  0.00    +0.000 P 
ATOM   1340  OP1 U   B   8      14.553 -11.912 -26.734  0.00  0.00    +0.000 OA
BRANCH13391341
ATOM   1341  OP2 U   B   8      13.071 -10.488 -25.194  0.00  0.00    +0.000 OA
ATOM   1342  H   U   B   8      12.314  -9.884 -25.251  0.00  0.00    +0.000 HD
ENDBRANCH13391341
BRANCH13391343
ATOM   1343  O3' C   B   7      12.109 -11.662 -27.178  0.00  0.00    +0.000 OA
BRANCH13431346
ATOM   1344  C4' C   B   7       9.785 -12.100 -26.566  0.00  0.00    +0.000 C 
ATOM   1345  O4' C   B   7       8.522 -11.488 -26.935  0.00  0.00    +0.000 OA
ATOM   1346  C3' C   B   7      10.825 -11.083 -26.993  0.00  0.00    +0.000 C 
ATOM   1347  C2' C   B   7      10.229 -10.512 -28.272  0.00  0.00    +0.000 C 
ATOM   1348  C1' C   B   7       8.733 -10.506 -27.932  0.00  0.00    +0.000 C 
BRANCH13481349
ATOM   1349  N1  C   B   7       8.280  -9.203 -27.402  0.00  0.00    +0.000 N 
ATOM   1350  C2  C   B   7       7.995  -8.176 -28.307  0.00  0.00    +0.000 A 
ATOM   1351  O2  C   B   7       8.130  -8.387 -29.524  0.00  0.00    +0.000 OA
ATOM   1352  N3  C   B   7       7.577  -6.979 -27.834  0.00  0.00    +0.000 NA
ATOM   1353  C4  C   B   7       7.440  -6.785 -26.519  0.00  0.00    +0.000 A 
ATOM   1354  N4  C   B   7       7.027  -5.586 -26.103  0.00  0.00    +0.000 N 
ATOM   1355  C5  C   B   7       7.724  -7.813 -25.580  0.00  0.00    +0.000 A 
ATOM   1356  C6  C   B   7       8.136  -8.993 -26.058  0.00  0.00    +0.000 A 
ATOM   1357  H   C   B   7       6.832  -4.878 -26.759  0.00  0.00    +0.000 HD
ATOM   1358  H   C   B   7       6.918  -5.410 -25.141  0.00  0.00    +0.000 HD
ENDBRANCH13481349
BRANCH13471359
ATOM   1359  O2' C   B   7      10.436 -11.382 -29.368  0.00  0.00    +0.000 OA
ATOM   1360  H   C   B   7      10.069 -12.256 -29.161  0.00  0.00    +0.000 HD
ENDBRANCH13471359
BRANCH13441361
ATOM   1361  C5' C   B   7       9.775 -12.450 -25.095  0.00  0.00    +0.000 C 
BRANCH13611362
ATOM   1362  O5' C   B   7       9.640 -11.293 -24.290  0.00  0.00    +0.000 OA
BRANCH13621363
ATOM   1363  P   C   B   7       9.382 -11.415 -22.725  0.00  0.00    +0.000 P 
ATOM   1364  OP2 C   B   7       9.214 -10.043 -22.176  0.00  0.00    +0.000 OA
BRANCH13631365
ATOM   1365  OP1 C   B   7      10.412 -12.318 -22.150  0.00  0.00    +0.000 OA
ATOM   1366  H   C   B   7      10.393 -13.169 -22.616  0.00  0.00    +0.000 HD
ENDBRANCH13631365
BRANCH13631367
ATOM   1367  O3' A   B   6       7.957 -12.187 -22.621  0.00  0.00    +0.000 OA
BRANCH13671370
ATOM   1368  C4' A   B   6       5.607 -11.872 -22.020  0.00  0.00    +0.000 C 
ATOM   1369  O4' A   B   6       4.428 -11.500 -22.778  0.00  0.00    +0.000 OA
ATOM   1370  C3' A   B   6       6.762 -11.488 -22.927  0.00  0.00    +0.000 C 
ATOM   1371  C2' A   B   6       6.216 -11.798 -24.311  0.00  0.00    +0.000 C 
ATOM   1372  C1' A   B   6       4.746 -11.402 -24.151  0.00  0.00    +0.000 C 
BRANCH13721373
ATOM   1373  N9  A   B   6       4.492 -10.019 -24.589  0.00  0.00    +0.000 N 
ATOM   1374  C8  A   B   6       4.287  -8.914 -23.803  0.00  0.00    +0.000 A 
ATOM   1375  N7  A   B   6       4.083  -7.812 -24.485  0.00  0.00    +0.000 NA
ATOM   1376  C5  A   B   6       4.162  -8.219 -25.808  0.00  0.00    +0.000 A 
ATOM   1377  C6  A   B   6       4.033  -7.526 -27.022  0.00  0.00    +0.000 A 
ATOM   1378  N1  A   B   6       4.165  -8.231 -28.167  0.00  0.00    +0.000 NA
ATOM   1379  C2  A   B   6       4.408  -9.546 -28.087  0.00  0.00    +0.000 A 
ATOM   1380  N3  A   B   6       4.547 -10.308 -27.005  0.00  0.00    +0.000 NA
ATOM   1381  C4  A   B   6       4.411  -9.574 -25.885  0.00  0.00    +0.000 A 
BRANCH13771382
ATOM   1382  N6  A   B   6       3.791  -6.210 -27.100  0.00  0.00    +0.000 N 
ATOM   1383  H   A   B   6       3.710  -5.776 -27.980  0.00  0.00    +0.000 HD
ATOM   1384  H   A   B   6       3.694  -5.678 -26.277  0.00  0.00    +0.000 HD
ENDBRANCH13771382
ENDBRANCH13721373
BRANCH13711385
ATOM   1385  O2' A   B   6       6.283 -13.184 -24.592  0.00  0.00    +0.000 OA
ATOM   1386  H   A   B   6       5.811 -13.677 -23.903  0.00  0.00    +0.000 HD
ENDBRANCH13711385
BRANCH13681387
ATOM   1387  C5' A   B   6       5.578 -11.201 -20.668  0.00  0.00    +0.000 C 
BRANCH13871388
ATOM   1388  O5' A   B   6       5.618  -9.788 -20.791  0.00  0.00    +0.000 OA
BRANCH13881389
ATOM   1389  P   A   B   6       5.369  -8.851 -19.527  0.00  0.00    +0.000 P 
ATOM   1390  OP2 A   B   6       5.432  -7.440 -19.983  0.00  0.00    +0.000 OA
BRANCH13891391
ATOM   1391  OP1 A   B   6       6.248  -9.314 -18.425  0.00  0.00    +0.000 OA
ATOM   1392  H   A   B   6       7.173  -9.129 -18.650  0.00  0.00    +0.000 HD
ENDBRANCH13891391
BRANCH13891393
ATOM   1393  O3' U   B   5       3.846  -9.179 -19.107  0.00  0.00    +0.000 OA
BRANCH13931396
ATOM   1394  C4' U   B   5       1.568  -8.286 -19.141  0.00  0.00    +0.000 C 
ATOM   1395  O4' U   B   5       0.473  -8.374 -20.093  0.00  0.00    +0.000 OA
ATOM   1396  C3' U   B   5       2.780  -8.733 -19.931  0.00  0.00    +0.000 C 
ATOM   1397  C2' U   B   5       2.207  -9.825 -20.825  0.00  0.00    +0.000 C 
ATOM   1398  C1' U   B   5       0.816  -9.260 -21.140  0.00  0.00    +0.000 C 
BRANCH13981399
ATOM   1399  N1  U   B   5       0.793  -8.511 -22.416  0.00  0.00    +0.000 N 
ATOM   1400  C2  U   B   5       0.679  -9.245 -23.585  0.00  0.00    +0.000 A 
ATOM   1401  O2  U   B   5       0.599 -10.463 -23.600  0.00  0.00    +0.000 OA
ATOM   1402  N3  U   B   5       0.660  -8.498 -24.740  0.00  0.00    +0.000 N 
ATOM   1403  C4  U   B   5       0.742  -7.125 -24.843  0.00  0.00    +0.000 A 
ATOM   1404  O4  U   B   5       0.711  -6.596 -25.958  0.00  0.00    +0.000 OA
ATOM   1405  C5  U   B   5       0.857  -6.440 -23.592  0.00  0.00    +0.000 A 
ATOM   1406  C6  U   B   5       0.878  -7.142 -22.452  0.00  0.00    +0.000 A 
ATOM   1407  H   U   B   5       0.579  -8.997 -25.585  0.00  0.00    +0.000 HD
ENDBRANCH13981399
BRANCH13971408
ATOM   1408  O2' U   B   5       2.050 -11.039 -20.114  0.00  0.00    +0.000 OA
ATOM   1409  H   U   B   5       1.496 -10.887 -19.333  0.00  0.00    +0.000 HD
ENDBRANCH13971408
BRANCH13941410
ATOM   1410  C5' U   B   5       1.633  -6.892 -18.562  0.00  0.00    +0.000 C 
BRANCH14101411
ATOM   1411  O5' U   B   5       1.908  -5.921 -19.558  0.00  0.00    +0.000 OA
BRANCH14111412
ATOM   1412  P   U   B   5       1.800  -4.363 -19.243  0.00  0.00    +0.000 P 
ATOM   1413  OP2 U   B   5       2.067  -3.616 -20.499  0.00  0.00    +0.000 OA
BRANCH14121414
ATOM   1414  OP1 U   B   5       2.599  -4.076 -18.027  0.00  0.00    +0.000 OA
ATOM   1415  H   U   B   5       3.542  -4.187 -18.226  0.00  0.00    +0.000 HD
ENDBRANCH14121414
BRANCH14121416
ATOM   1416  O3' A   B   4       0.246  -4.164 -18.858  0.00  0.00    +0.000 OA
BRANCH14161419
ATOM   1417  C4' A   B   4      -1.857  -3.216 -19.682  0.00  0.00    +0.000 C 
ATOM   1418  O4' A   B   4      -2.966  -3.770 -20.438  0.00  0.00    +0.000 OA
ATOM   1419  C3' A   B   4      -0.746  -4.235 -19.868  0.00  0.00    +0.000 C 
ATOM   1420  C2' A   B   4      -1.505  -5.554 -19.881  0.00  0.00    +0.000 C 
ATOM   1421  C1' A   B   4      -2.777  -5.158 -20.635  0.00  0.00    +0.000 C 
BRANCH14211422
ATOM   1422  N9  A   B   4      -2.660  -5.410 -22.083  0.00  0.00    +0.000 N 
ATOM   1423  C8  A   B   4      -2.324  -4.516 -23.069  0.00  0.00    +0.000 A 
ATOM   1424  N7  A   B   4      -2.303  -5.040 -24.273  0.00  0.00    +0.000 NA
ATOM   1425  C5  A   B   4      -2.645  -6.369 -24.067  0.00  0.00    +0.000 A 
ATOM   1426  C6  A   B   4      -2.799  -7.456 -24.946  0.00  0.00    +0.000 A 
ATOM   1427  N1  A   B   4      -3.149  -8.646 -24.415  0.00  0.00    +0.000 NA
ATOM   1428  C2  A   B   4      -3.332  -8.732 -23.091  0.00  0.00    +0.000 A 
ATOM   1429  N3  A   B   4      -3.217  -7.781 -22.162  0.00  0.00    +0.000 NA
ATOM   1430  C4  A   B   4      -2.866  -6.609 -22.725  0.00  0.00    +0.000 A 
BRANCH14261431
ATOM   1431  N6  A   B   4      -2.611  -7.368 -26.273  0.00  0.00    +0.000 N 
ATOM   1432  H   A   B   4      -2.733  -8.163 -26.841  0.00  0.00    +0.000 HD
ATOM   1433  H   A   B   4      -2.351  -6.509 -26.677  0.00  0.00    +0.000 HD
ENDBRANCH14261431
ENDBRANCH14211422
BRANCH14201434
ATOM   1434  O2' A   B   4      -1.863  -5.954 -18.571  0.00  0.00    +0.000 OA
ATOM   1435  H   A   B   4      -2.376  -5.249 -18.146  0.00  0.00    +0.000 HD
ENDBRANCH14201434
BRANCH14171436
ATOM   1436  C5' A   B   4      -1.557  -1.818 -20.169  0.00  0.00    +0.000 C 
BRANCH14361437
ATOM   1437  O5' A   B   4      -1.188  -1.813 -21.538  0.00  0.00    +0.000 OA
BRANCH14371438
ATOM   1438  P   A   B   4      -1.227  -0.467 -22.390  0.00  0.00    +0.000 P 
ATOM   1439  OP2 A   B   4      -0.902  -0.797 -23.803  0.00  0.00    +0.000 OA
BRANCH14381440
ATOM   1440  OP1 A   B   4      -0.427   0.557 -21.670  0.00  0.00    +0.000 OA
ATOM   1441  H   A   B   4      -0.437   1.387 -22.172  0.00  0.00    +0.000 HD
ENDBRANCH14381440
BRANCH14381442
ATOM   1442  O3' A   B   3      -2.756  -0.028 -22.313  0.00  0.00    +0.000 OA
BRANCH14421445
ATOM   1443  C4' A   B   3      -4.835   0.324 -23.556  0.00  0.00    +0.000 C 
ATOM   1444  O4' A   B   3      -5.927  -0.555 -23.934  0.00  0.00    +0.000 OA
ATOM   1445  C3' A   B   3      -3.718  -0.629 -23.163  0.00  0.00    +0.000 C 
ATOM   1446  C2' A   B   3      -4.474  -1.777 -22.508  0.00  0.00    +0.000 C 
ATOM   1447  C1' A   B   3      -5.733  -1.840 -23.376  0.00  0.00    +0.000 C 
BRANCH14471448
ATOM   1448  N9  A   B   3      -5.599  -2.811 -24.479  0.00  0.00    +0.000 N 
ATOM   1449  C8  A   B   3      -5.261  -2.557 -25.785  0.00  0.00    +0.000 A 
ATOM   1450  N7  A   B   3      -5.226  -3.630 -26.539  0.00  0.00    +0.000 NA
ATOM   1451  C5  A   B   3      -5.561  -4.661 -25.671  0.00  0.00    +0.000 A 
ATOM   1452  C6  A   B   3      -5.700  -6.050 -25.856  0.00  0.00    +0.000 A 
ATOM   1453  N1  A   B   3      -6.048  -6.790 -24.782  0.00  0.00    +0.000 NA
ATOM   1454  C2  A   B   3      -6.243  -6.177 -23.607  0.00  0.00    +0.000 A 
ATOM   1455  N3  A   B   3      -6.142  -4.882 -23.310  0.00  0.00    +0.000 NA
ATOM   1456  C4  A   B   3      -5.793  -4.171 -24.402  0.00  0.00    +0.000 A 
BRANCH14521457
ATOM   1457  N6  A   B   3      -5.502  -6.665 -27.032  0.00  0.00    +0.000 N 
ATOM   1458  H   A   B   3      -5.248  -6.140 -27.825  0.00  0.00    +0.000 HD
ATOM   1459  H   A   B   3      -5.611  -7.641 -27.102  0.00  0.00    +0.000 HD
ENDBRANCH14521457
ENDBRANCH14471448
BRANCH14461460
ATOM   1460  O2' A   B   3      -4.855  -1.448 -21.182  0.00  0.00    +0.000 OA
ATOM   1461  H   A   B   3      -5.376  -0.630 -21.189  0.00  0.00    +0.000 HD
ENDBRANCH14461460
BRANCH14431462
ATOM   1462  C5' A   B   3      -4.527   1.267 -24.697  0.00  0.00    +0.000 C 
BRANCH14621463
ATOM   1463  O5' A   B   3      -4.134   0.563 -25.864  0.00  0.00    +0.000 OA
BRANCH14631464
ATOM   1464  P   A   B   3      -4.120   1.278 -27.287  0.00  0.00    +0.000 P 
ATOM   1465  OP2 A   B   3      -3.766   0.266 -28.312  0.00  0.00    +0.000 OA
BRANCH14641466
ATOM   1466  OP1 A   B   3      -3.319   2.522 -27.167  0.00  0.00    +0.000 OA
ATOM   1467  H   A   B   3      -3.296   2.976 -28.024  0.00  0.00    +0.000 HD
ENDBRANCH14641466
BRANCH14641468
ATOM   1468  O3' U   B   2      -5.642   1.694 -27.502  0.00  0.00    +0.000 OA
BRANCH14681471
ATOM   1469  C4' U   B   2      -7.688   1.278 -28.781  0.00  0.00    +0.000 C 
ATOM   1470  O4' U   B   2      -8.786   0.332 -28.637  0.00  0.00    +0.000 OA
ATOM   1471  C3' U   B   2      -6.597   0.721 -27.884  0.00  0.00    +0.000 C 
ATOM   1472  C2' U   B   2      -7.393   0.153 -26.713  0.00  0.00    +0.000 C 
ATOM   1473  C1' U   B   2      -8.640  -0.391 -27.426  0.00  0.00    +0.000 C 
BRANCH14731474
ATOM   1474  N1  U   B   2      -8.519  -1.838 -27.737  0.00  0.00    +0.000 N 
ATOM   1475  C2  U   B   2      -8.781  -2.737 -26.719  0.00  0.00    +0.000 A 
ATOM   1476  O2  U   B   2      -9.103  -2.402 -25.589  0.00  0.00    +0.000 OA
ATOM   1477  N3  U   B   2      -8.649  -4.061 -27.069  0.00  0.00    +0.000 N 
ATOM   1478  C4  U   B   2      -8.295  -4.559 -28.308  0.00  0.00    +0.000 A 
ATOM   1479  O4  U   B   2      -8.218  -5.778 -28.469  0.00  0.00    +0.000 OA
ATOM   1480  C5  U   B   2      -8.043  -3.563 -29.307  0.00  0.00    +0.000 A 
ATOM   1481  C6  U   B   2      -8.163  -2.267 -28.996  0.00  0.00    +0.000 A 
ATOM   1482  H   U   B   2      -8.825  -4.723 -26.362  0.00  0.00    +0.000 HD
ENDBRANCH14731474
BRANCH14721483
ATOM   1483  O2' U   B   2      -7.796   1.180 -25.818  0.00  0.00    +0.000 OA
ATOM   1484  H   U   B   2      -8.302   1.851 -26.303  0.00  0.00    +0.000 HD
ENDBRANCH14721483
BRANCH14691485
ATOM   1485  C5' U   B   2      -7.342   1.433 -30.240  0.00  0.00    +0.000 C 
BRANCH14851486
ATOM   1486  O5' U   B   2      -7.069   0.204 -30.863  0.00  0.00    +0.000 OA
BRANCH14861487
ATOM   1487  P   U   B   2      -8.056  -0.379 -31.976  0.00  0.00    +0.000 P 
ATOM   1488  OP2 U   B   2      -9.017   0.694 -32.327  0.00  0.00    +0.000 OA
BRANCH14871489
ATOM   1489  OP1 U   B   2      -8.538  -1.690 -31.516  0.00  0.00    +0.000 OA
ATOM   1490  H   U   B   2      -9.140  -2.064 -32.178  0.00  0.00    +0.000 HD
ENDBRANCH14871489
BRANCH14871491
ATOM   1491  O3' C   B   1      -7.181  -0.578 -33.251  0.00  0.00    +0.000 OA
BRANCH14911494
ATOM   1492  C4' C   B   1      -5.249  -1.609 -34.288  0.00  0.00    +0.000 C 
ATOM   1493  O4' C   B   1      -5.076  -2.753 -35.157  0.00  0.00    +0.000 OA
ATOM   1494  C3' C   B   1      -6.610  -1.820 -33.648  0.00  0.00    +0.000 C 
ATOM   1495  C2' C   B   1      -7.410  -2.523 -34.720  0.00  0.00    +0.000 C 
ATOM   1496  C1' C   B   1      -6.322  -3.345 -35.440  0.00  0.00    +0.000 C 
BRANCH14961497
ATOM   1497  N1  C   B   1      -6.257  -4.762 -35.011  0.00  0.00    +0.000 N 
ATOM   1498  C2  C   B   1      -7.300  -5.626 -35.322  0.00  0.00    +0.000 A 
ATOM   1499  O2  C   B   1      -8.283  -5.195 -35.940  0.00  0.00    +0.000 OA
ATOM   1500  N3  C   B   1      -7.219  -6.925 -34.943  0.00  0.00    +0.000 NA
ATOM   1501  C4  C   B   1      -6.149  -7.366 -34.276  0.00  0.00    +0.000 A 
ATOM   1502  N4  C   B   1      -6.115  -8.652 -33.928  0.00  0.00    +0.000 N 
ATOM   1503  C5  C   B   1      -5.064  -6.510 -33.950  0.00  0.00    +0.000 A 
ATOM   1504  C6  C   B   1      -5.159  -5.229 -34.333  0.00  0.00    +0.000 A 
ATOM   1505  H   C   B   1      -6.868  -9.244 -34.155  0.00  0.00    +0.000 HD
ATOM   1506  H   C   B   1      -5.336  -9.010 -33.444  0.00  0.00    +0.000 HD
ENDBRANCH14961497
BRANCH14951507
ATOM   1507  O2' C   B   1      -7.947  -1.581 -35.646  0.00  0.00    +0.000 OA
ATOM   1508  H   C   B   1      -7.227  -1.048 -36.019  0.00  0.00    +0.000 HD
ENDBRANCH14951507
BRANCH14921509
ATOM   1509  C5' C   B   1      -4.091  -1.523 -33.316  0.00  0.00    +0.000 C 
BRANCH15091510
ATOM   1510  O5' C   B   1      -2.841  -1.553 -33.967  0.00  0.00    +0.000 OA
BRANCH15101511
ATOM   1511  P   C   B   1      -1.587  -1.852 -33.037  0.00  0.00    +0.000 P 
ATOM   1512  OP1 C   B   1      -0.370  -1.495 -33.685  0.00  0.00    +0.000 OA
BRANCH15111513
ATOM   1513  OP2 C   B   1      -1.761  -3.147 -32.392  0.00  0.00    +0.000 OA
ATOM   1514  H   C   B   1      -1.596  -3.854 -33.036  0.00  0.00    +0.000 HD
ENDBRANCH15111513
BRANCH15111515
ATOM   1515  OP3 C   B   1      -1.823  -0.766 -32.118  0.00  0.00    +0.000 OA
ATOM   1516  H   C   B   1      -1.699   0.079 -32.578  0.00  0.00    +0.000 HD
ENDBRANCH15111515
ENDBRANCH15101511
ENDBRANCH15091510
ENDBRANCH14921509
ENDBRANCH14911494
ENDBRANCH14871491
ENDBRANCH14861487
ENDBRANCH14851486
ENDBRANCH14691485
ENDBRANCH14681471
ENDBRANCH14641468
ENDBRANCH14631464
ENDBRANCH14621463
ENDBRANCH14431462
ENDBRANCH14421445
ENDBRANCH14381442
ENDBRANCH14371438
ENDBRANCH14361437
ENDBRANCH14171436
ENDBRANCH14161419
ENDBRANCH14121416
ENDBRANCH14111412
ENDBRANCH14101411
ENDBRANCH13941410
ENDBRANCH13931396
ENDBRANCH13891393
ENDBRANCH13881389
ENDBRANCH13871388
ENDBRANCH13681387
ENDBRANCH13671370
ENDBRANCH13631367
ENDBRANCH13621363
ENDBRANCH13611362
ENDBRANCH13441361
ENDBRANCH13431346
ENDBRANCH13391343
ENDBRANCH13381339
ENDBRANCH13371338
ENDBRANCH13211337
ENDBRANCH13201323
ENDBRANCH13161320
ENDBRANCH13151316
ENDBRANCH13141315
ENDBRANCH   11314
BRANCH 5521517
ATOM   1517  O3' C   B  62      18.589   2.921 -37.403  0.00  0.00    +0.000 OA
BRANCH15171518
ATOM   1518  P   U   B  63      17.162   2.266 -37.767  0.00  0.00    +0.000 P 
ATOM   1519  OP1 U   B  63      16.623   2.983 -38.947  0.00  0.00    +0.000 OA
BRANCH15181520
ATOM   1520  OP2 U   B  63      16.354   2.178 -36.522  0.00  0.00    +0.000 OA
ATOM   1521  H   U   B  63      15.490   1.785 -36.724  0.00  0.00    +0.000 HD
ENDBRANCH15181520
BRANCH15181522
ATOM   1522  O5' U   B  63      17.553   0.794 -38.211  0.00  0.00    +0.000 OA
BRANCH15221523
ATOM   1523  C5' U   B  63      18.440   0.570 -39.297  0.00  0.00    +0.000 C 
BRANCH15231524
ATOM   1524  C4' U   B  63      18.890  -0.869 -39.354  0.00  0.00    +0.000 C 
ATOM   1525  O4' U   B  63      19.670  -1.184 -38.170  0.00  0.00    +0.000 OA
ATOM   1526  C3' U   B  63      17.787  -1.905 -39.352  0.00  0.00    +0.000 C 
ATOM   1527  C2' U   B  63      18.492  -3.144 -38.815  0.00  0.00    +0.000 C 
ATOM   1528  C1' U   B  63      19.443  -2.524 -37.785  0.00  0.00    +0.000 C 
BRANCH15281529
ATOM   1529  N1  U   B  63      18.868  -2.532 -36.422  0.00  0.00    +0.000 N 
ATOM   1530  C2  U   B  63      19.010  -3.687 -35.674  0.00  0.00    +0.000 A 
ATOM   1531  O2  U   B  63      19.580  -4.681 -36.093  0.00  0.00    +0.000 OA
ATOM   1532  N3  U   B  63      18.458  -3.640 -34.415  0.00  0.00    +0.000 N 
ATOM   1533  C4  U   B  63      17.796  -2.574 -33.839  0.00  0.00    +0.000 A 
ATOM   1534  O4  U   B  63      17.352  -2.682 -32.692  0.00  0.00    +0.000 OA
ATOM   1535  C5  U   B  63      17.691  -1.419 -34.674  0.00  0.00    +0.000 A 
ATOM   1536  C6  U   B  63      18.220  -1.435 -35.906  0.00  0.00    +0.000 A 
ATOM   1537  H   U   B  63      18.544  -4.453 -33.866  0.00  0.00    +0.000 HD
ENDBRANCH15281529
BRANCH15271538
ATOM   1538  O2' U   B  63      19.270  -3.766 -39.826  0.00  0.00    +0.000 OA
ATOM   1539  H   U   B  63      19.896  -3.123 -40.194  0.00  0.00    +0.000 HD
ENDBRANCH15271538
BRANCH15261540
ATOM   1540  O3' U   B  63      17.214  -2.089 -40.637  0.00  0.00    +0.000 OA
BRANCH15401541
ATOM   1541  P   A   B  64      15.629  -2.322 -40.779  0.00  0.00    +0.000 P 
ATOM   1542  OP1 A   B  64      15.270  -2.106 -42.201  0.00  0.00    +0.000 OA
BRANCH15411543
ATOM   1543  OP2 A   B  64      14.946  -1.541 -39.716  0.00  0.00    +0.000 OA
ATOM   1544  H   A   B  64      15.044  -0.593 -39.897  0.00  0.00    +0.000 HD
ENDBRANCH15411543
BRANCH15411545
ATOM   1545  O5' A   B  64      15.450  -3.868 -40.453  0.00  0.00    +0.000 OA
BRANCH15451546
ATOM   1546  C5' A   B  64      16.001  -4.856 -41.301  0.00  0.00    +0.000 C 
BRANCH15461547
ATOM   1547  C4' A   B  64      15.751  -6.243 -40.768  0.00  0.00    +0.000 C 
ATOM   1548  O4' A   B  64      16.535  -6.456 -39.564  0.00  0.00    +0.000 OA
ATOM   1549  C3' A   B  64      14.327  -6.534 -40.329  0.00  0.00    +0.000 C 
ATOM   1550  C2' A   B  64      14.512  -7.679 -39.341  0.00  0.00    +0.000 C 
ATOM   1551  C1' A   B  64      15.827  -7.283 -38.666  0.00  0.00    +0.000 C 
BRANCH15511552
ATOM   1552  N9  A   B  64      15.609  -6.535 -37.415  0.00  0.00    +0.000 N 
ATOM   1553  C8  A   B  64      15.568  -5.178 -37.242  0.00  0.00    +0.000 A 
ATOM   1554  N7  A   B  64      15.357  -4.811 -35.998  0.00  0.00    +0.000 NA
ATOM   1555  C5  A   B  64      15.256  -6.014 -35.305  0.00  0.00    +0.000 A 
ATOM   1556  C6  A   B  64      15.038  -6.313 -33.946  0.00  0.00    +0.000 A 
ATOM   1557  N6  A   B  64      14.869  -5.378 -32.998  0.00  0.00    +0.000 N 
ATOM   1558  N1  A   B  64      14.998  -7.609 -33.590  0.00  0.00    +0.000 NA
ATOM   1559  C2  A   B  64      15.167  -8.541 -34.534  0.00  0.00    +0.000 A 
ATOM   1560  N3  A   B  64      15.376  -8.384 -35.842  0.00  0.00    +0.000 NA
ATOM   1561  C4  A   B  64      15.409  -7.079 -36.165  0.00  0.00    +0.000 A 
ATOM   1562  H   A   B  64      14.895  -4.424 -33.238  0.00  0.00    +0.000 HD
ATOM   1563  H   A   B  64      14.719  -5.647 -32.063  0.00  0.00    +0.000 HD
ENDBRANCH15511552
BRANCH15501564
ATOM   1564  O2' A   B  64      14.704  -8.911 -40.017  0.00  0.00    +0.000 OA
ATOM   1565  H   A   B  64      15.456  -8.833 -40.624  0.00  0.00    +0.000 HD
ENDBRANCH15501564
BRANCH15491566
ATOM   1566  O3' A   B  64      13.480  -6.857 -41.422  0.00  0.00    +0.000 OA
BRANCH15661567
ATOM   1567  P   C   B  65      11.951  -6.333 -41.437  0.00  0.00    +0.000 P 
ATOM   1568  OP1 C   B  65      11.430  -6.493 -42.819  0.00  0.00    +0.000 OA
BRANCH15671569
ATOM   1569  OP2 C   B  65      11.906  -5.001 -40.777  0.00  0.00    +0.000 OA
ATOM   1570  H   C   B  65      12.360  -4.349 -41.333  0.00  0.00    +0.000 HD
ENDBRANCH15671569
BRANCH15671571
ATOM   1571  O5' C   B  65      11.195  -7.376 -40.492  0.00  0.00    +0.000 OA
BRANCH15711572
ATOM   1572  C5' C   B  65      11.157  -8.747 -40.821  0.00  0.00    +0.000 C 
BRANCH15721573
ATOM   1573  C4' C   B  65      10.628  -9.579 -39.675  0.00  0.00    +0.000 C 
ATOM   1574  O4' C   B  65      11.534  -9.487 -38.542  0.00  0.00    +0.000 OA
ATOM   1575  C3' C   B  65       9.289  -9.149 -39.110  0.00  0.00    +0.000 C 
ATOM   1576  C2' C   B  65       9.323  -9.720 -37.693  0.00  0.00    +0.000 C 
ATOM   1577  C1' C   B  65      10.803  -9.550 -37.334  0.00  0.00    +0.000 C 
BRANCH15771578
ATOM   1578  N1  C   B  65      11.059  -8.316 -36.560  0.00  0.00    +0.000 N 
ATOM   1579  C2  C   B  65      10.906  -8.360 -35.169  0.00  0.00    +0.000 A 
ATOM   1580  O2  C   B  65      10.565  -9.422 -34.627  0.00  0.00    +0.000 OA
ATOM   1581  N3  C   B  65      11.140  -7.240 -34.443  0.00  0.00    +0.000 NA
ATOM   1582  C4  C   B  65      11.509  -6.111 -35.058  0.00  0.00    +0.000 A 
ATOM   1583  N4  C   B  65      11.730  -5.030 -34.299  0.00  0.00    +0.000 N 
ATOM   1584  C5  C   B  65      11.671  -6.043 -36.471  0.00  0.00    +0.000 A 
ATOM   1585  C6  C   B  65      11.439  -7.158 -37.178  0.00  0.00    +0.000 A 
ATOM   1586  H   C   B  65      12.003  -4.182 -34.718  0.00  0.00    +0.000 HD
ATOM   1587  H   C   B  65      11.620  -5.083 -33.322  0.00  0.00    +0.000 HD
ENDBRANCH15771578
BRANCH15761588
ATOM   1588  O2' C   B  65       9.019 -11.103 -37.698  0.00  0.00    +0.000 OA
ATOM   1589  H   C   B  65       9.630 -11.566 -38.292  0.00  0.00    +0.000 HD
ENDBRANCH15761588
BRANCH15751590
ATOM   1590  O3' C   B  65       8.195  -9.628 -39.883  0.00  0.00    +0.000 OA
BRANCH15901591
ATOM   1591  P   A   B  66       7.109  -8.606 -40.555  0.00  0.00    +0.000 P 
ATOM   1592  OP1 A   B  66       6.424  -9.331 -41.638  0.00  0.00    +0.000 OA
BRANCH15911593
ATOM   1593  OP2 A   B  66       7.829  -7.339 -40.842  0.00  0.00    +0.000 OA
ATOM   1594  H   A   B  66       8.479  -7.489 -41.546  0.00  0.00    +0.000 HD
ENDBRANCH15911593
BRANCH15911595
ATOM   1595  O5' A   B  66       6.056  -8.300 -39.393  0.00  0.00    +0.000 OA
BRANCH15951596
ATOM   1596  C5' A   B  66       6.510  -7.754 -38.187  0.00  0.00    +0.000 C 
BRANCH15961597
ATOM   1597  C4' A   B  66       5.408  -7.573 -37.186  0.00  0.00    +0.000 C 
ATOM   1598  O4' A   B  66       5.983  -7.611 -35.855  0.00  0.00    +0.000 OA
ATOM   1599  C3' A   B  66       4.683  -6.242 -37.288  0.00  0.00    +0.000 C 
ATOM   1600  C2' A   B  66       4.265  -5.984 -35.843  0.00  0.00    +0.000 C 
ATOM   1601  C1' A   B  66       5.434  -6.591 -35.066  0.00  0.00    +0.000 C 
BRANCH16011602
ATOM   1602  N9  A   B  66       6.516  -5.636 -34.763  0.00  0.00    +0.000 N 
ATOM   1603  C8  A   B  66       7.066  -4.668 -35.571  0.00  0.00    +0.000 A 
ATOM   1604  N7  A   B  66       8.028  -3.983 -34.998  0.00  0.00    +0.000 NA
ATOM   1605  C5  A   B  66       8.117  -4.537 -33.731  0.00  0.00    +0.000 A 
ATOM   1606  C6  A   B  66       8.952  -4.259 -32.632  0.00  0.00    +0.000 A 
ATOM   1607  N6  A   B  66       9.889  -3.302 -32.639  0.00  0.00    +0.000 N 
ATOM   1608  N1  A   B  66       8.786  -5.002 -31.514  0.00  0.00    +0.000 NA
ATOM   1609  C2  A   B  66       7.848  -5.957 -31.507  0.00  0.00    +0.000 A 
ATOM   1610  N3  A   B  66       7.006  -6.316 -32.477  0.00  0.00    +0.000 NA
ATOM   1611  C4  A   B  66       7.197  -5.555 -33.576  0.00  0.00    +0.000 A 
ATOM   1612  H   A   B  66      10.024  -2.751 -33.444  0.00  0.00    +0.000 HD
ATOM   1613  H   A   B  66      10.443  -3.149 -31.839  0.00  0.00    +0.000 HD
ENDBRANCH16011602
BRANCH16001614
ATOM   1614  O2' A   B  66       3.076  -6.692 -35.534  0.00  0.00    +0.000 OA
ATOM   1615  H   A   B  66       3.206  -7.636 -35.714  0.00  0.00    +0.000 HD
ENDBRANCH16001614
BRANCH15991616
ATOM   1616  O3' A   B  66       3.575  -6.291 -38.188  0.00  0.00    +0.000 OA
BRANCH16161617
ATOM   1617  P   A   B  67       3.339  -5.048 -39.247  0.00  0.00    +0.000 P 
ATOM   1618  OP1 A   B  67       3.778  -5.604 -40.553  0.00  0.00    +0.000 OA
BRANCH16171619
ATOM   1619  OP2 A   B  67       3.986  -3.844 -38.708  0.00  0.00    +0.000 OA
ATOM   1620  H   A   B  67       3.855  -3.104 -39.322  0.00  0.00    +0.000 HD
ENDBRANCH16171619
BRANCH16171621
ATOM   1621  O5' A   B  67       1.765  -4.721 -39.325  0.00  0.00    +0.000 OA
BRANCH16211622
ATOM   1622  C5' A   B  67       0.879  -4.977 -38.257  0.00  0.00    +0.000 C 
BRANCH16221623
ATOM   1623  C4' A   B  67      -0.548  -5.091 -38.744  0.00  0.00    +0.000 C 
ATOM   1624  O4' A   B  67      -0.725  -4.269 -39.914  0.00  0.00    +0.000 OA
ATOM   1625  C3' A   B  67      -0.991  -6.478 -39.185  0.00  0.00    +0.000 C 
ATOM   1626  C2' A   B  67      -2.070  -6.202 -40.226  0.00  0.00    +0.000 C 
ATOM   1627  C1' A   B  67      -1.579  -4.896 -40.842  0.00  0.00    +0.000 C 
BRANCH16271628
ATOM   1628  N9  A   B  67      -0.832  -5.103 -42.096  0.00  0.00    +0.000 N 
ATOM   1629  C8  A   B  67       0.525  -5.253 -42.247  0.00  0.00    +0.000 A 
ATOM   1630  N7  A   B  67       0.900  -5.409 -43.500  0.00  0.00    +0.000 NA
ATOM   1631  C5  A   B  67      -0.286  -5.350 -44.210  0.00  0.00    +0.000 A 
ATOM   1632  C6  A   B  67      -0.565  -5.447 -45.577  0.00  0.00    +0.000 A 
ATOM   1633  N1  A   B  67      -1.856  -5.348 -45.960  0.00  0.00    +0.000 NA
ATOM   1634  C2  A   B  67      -2.799  -5.159 -45.024  0.00  0.00    +0.000 A 
ATOM   1635  N3  A   B  67      -2.658  -5.053 -43.705  0.00  0.00    +0.000 NA
ATOM   1636  C4  A   B  67      -1.361  -5.160 -43.359  0.00  0.00    +0.000 A 
BRANCH16321637
ATOM   1637  N6  A   B  67       0.375  -5.637 -46.514  0.00  0.00    +0.000 N 
ATOM   1638  H   A   B  67       0.119  -5.698 -47.463  0.00  0.00    +0.000 HD
ATOM   1639  H   A   B  67       1.321  -5.716 -46.253  0.00  0.00    +0.000 HD
ENDBRANCH16321637
ENDBRANCH16271628
BRANCH16261640
ATOM   1640  O2' A   B  67      -3.338  -5.969 -39.614  0.00  0.00    +0.000 OA
ATOM   1641  H   A   B  67      -3.262  -5.238 -38.981  0.00  0.00    +0.000 HD
ENDBRANCH16261640
BRANCH16251642
ATOM   1642  O3' A   B  67      -1.489  -7.238 -38.097  0.00  0.00    +0.000 OA
BRANCH16421643
ATOM   1643  P   A   B  68      -1.130  -8.684 -37.551  0.00  0.00    +0.000 P 
ATOM   1644  OP1 A   B  68      -2.356  -9.500 -37.658  0.00  0.00    +0.000 OA
BRANCH16431645
ATOM   1645  OP2 A   B  68      -0.517  -8.467 -36.221  0.00  0.00    +0.000 OA
ATOM   1646  H   A   B  68       0.275  -7.915 -36.316  0.00  0.00    +0.000 HD
ENDBRANCH16431645
BRANCH16431647
ATOM   1647  O5' A   B  68      -0.040  -9.393 -38.463  0.00  0.00    +0.000 OA
BRANCH16471648
ATOM   1648  C5' A   B  68       1.341  -9.296 -38.167  0.00  0.00    +0.000 C 
BRANCH16481649
ATOM   1649  C4' A   B  68       1.931 -10.563 -37.586  0.00  0.00    +0.000 C 
ATOM   1650  O4' A   B  68       3.222 -10.220 -37.038  0.00  0.00    +0.000 OA
ATOM   1651  C3' A   B  68       1.171 -11.176 -36.417  0.00  0.00    +0.000 C 
ATOM   1652  C2' A   B  68       2.271 -11.859 -35.612  0.00  0.00    +0.000 C 
ATOM   1653  C1' A   B  68       3.408 -10.852 -35.789  0.00  0.00    +0.000 C 
BRANCH16531654
ATOM   1654  N9  A   B  68       3.392  -9.806 -34.756  0.00  0.00    +0.000 N 
ATOM   1655  C8  A   B  68       2.990  -8.500 -34.905  0.00  0.00    +0.000 A 
ATOM   1656  N7  A   B  68       3.088  -7.786 -33.808  0.00  0.00    +0.000 NA
ATOM   1657  C5  A   B  68       3.597  -8.687 -32.877  0.00  0.00    +0.000 A 
ATOM   1658  C6  A   B  68       3.932  -8.552 -31.520  0.00  0.00    +0.000 A 
ATOM   1659  N6  A   B  68       3.795  -7.404 -30.841  0.00  0.00    +0.000 N 
ATOM   1660  N1  A   B  68       4.412  -9.640 -30.881  0.00  0.00    +0.000 NA
ATOM   1661  C2  A   B  68       4.548 -10.786 -31.564  0.00  0.00    +0.000 A 
ATOM   1662  N3  A   B  68       4.267 -11.037 -32.838  0.00  0.00    +0.000 NA
ATOM   1663  C4  A   B  68       3.788  -9.929 -33.446  0.00  0.00    +0.000 A 
ATOM   1664  H   A   B  68       3.446  -6.603 -31.294  0.00  0.00    +0.000 HD
ATOM   1665  H   A   B  68       4.043  -7.362 -29.889  0.00  0.00    +0.000 HD
ENDBRANCH16531654
BRANCH16521666
ATOM   1666  O2' A   B  68       2.639 -13.094 -36.185  0.00  0.00    +0.000 OA
ATOM   1667  H   A   B  68       2.899 -12.957 -37.110  0.00  0.00    +0.000 HD
ENDBRANCH16521666
BRANCH16511668
ATOM   1668  O3' A   B  68       0.149 -12.088 -36.837  0.00  0.00    +0.000 OA
BRANCH16681669
ATOM   1669  P   A   B  69      -1.102 -12.445 -35.880  0.00  0.00    +0.000 P 
ATOM   1670  OP1 A   B  69      -1.994 -13.365 -36.631  0.00  0.00    +0.000 OA
BRANCH16691671
ATOM   1671  OP2 A   B  69      -1.629 -11.145 -35.384  0.00  0.00    +0.000 OA
ATOM   1672  H   A   B  69      -1.996 -10.641 -36.127  0.00  0.00    +0.000 HD
ENDBRANCH16691671
BRANCH16691673
ATOM   1673  O5' A   B  69      -0.510 -13.241 -34.638  0.00  0.00    +0.000 OA
BRANCH16731674
ATOM   1674  C5' A   B  69       0.000 -14.558 -34.783  0.00  0.00    +0.000 C 
BRANCH16741675
ATOM   1675  C4' A   B  69       0.495 -15.115 -33.472  0.00  0.00    +0.000 C 
ATOM   1676  O4' A   B  69       1.554 -14.273 -32.949  0.00  0.00    +0.000 OA
ATOM   1677  C3' A   B  69      -0.527 -15.161 -32.354  0.00  0.00    +0.000 C 
ATOM   1678  C2' A   B  69       0.339 -15.138 -31.099  0.00  0.00    +0.000 C 
ATOM   1679  C1' A   B  69       1.483 -14.219 -31.539  0.00  0.00    +0.000 C 
BRANCH16791680
ATOM   1680  N9  A   B  69       1.271 -12.818 -31.139  0.00  0.00    +0.000 N 
ATOM   1681  C8  A   B  69       0.838 -11.779 -31.921  0.00  0.00    +0.000 A 
ATOM   1682  N7  A   B  69       0.755 -10.635 -31.281  0.00  0.00    +0.000 NA
ATOM   1683  C5  A   B  69       1.166 -10.945 -29.990  0.00  0.00    +0.000 A 
ATOM   1684  C6  A   B  69       1.305 -10.166 -28.827  0.00  0.00    +0.000 A 
ATOM   1685  N6  A   B  69       1.029  -8.853 -28.777  0.00  0.00    +0.000 N 
ATOM   1686  N1  A   B  69       1.738 -10.781 -27.706  0.00  0.00    +0.000 NA
ATOM   1687  C2  A   B  69       2.014 -12.091 -27.755  0.00  0.00    +0.000 A 
ATOM   1688  N3  A   B  69       1.923 -12.925 -28.786  0.00  0.00    +0.000 NA
ATOM   1689  C4  A   B  69       1.486 -12.281 -29.889  0.00  0.00    +0.000 A 
ATOM   1690  H   A   B  69       0.712  -8.386 -29.583  0.00  0.00    +0.000 HD
ATOM   1691  H   A   B  69       1.144  -8.358 -27.934  0.00  0.00    +0.000 HD
ENDBRANCH16791680
BRANCH16781692
ATOM   1692  O2' A   B  69       0.863 -16.426 -30.816  0.00  0.00    +0.000 OA
ATOM   1693  H   A   B  69       1.353 -16.752 -31.587  0.00  0.00    +0.000 HD
ENDBRANCH16781692
BRANCH16771694
ATOM   1694  O3' A   B  69      -1.366 -16.308 -32.431  0.00  0.00    +0.000 OA
BRANCH16941695
ATOM   1695  P   A   B  70      -2.941 -16.182 -32.167  0.00  0.00    +0.000 P 
ATOM   1696  OP1 A   B  70      -3.605 -17.370 -32.765  0.00  0.00    +0.000 OA
BRANCH16951697
ATOM   1697  OP2 A   B  70      -3.363 -14.814 -32.576  0.00  0.00    +0.000 OA
ATOM   1698  H   A   B  70      -3.288 -14.727 -33.539  0.00  0.00    +0.000 HD
ENDBRANCH16951697
BRANCH16951699
ATOM   1699  O5' A   B  70      -3.077 -16.289 -30.581  0.00  0.00    +0.000 OA
BRANCH16991700
ATOM   1700  C5' A   B  70      -2.653 -17.455 -29.887  0.00  0.00    +0.000 C 
BRANCH17001701
ATOM   1701  C4' A   B  70      -2.398 -17.164 -28.427  0.00  0.00    +0.000 C 
ATOM   1702  O4' A   B  70      -1.322 -16.198 -28.307  0.00  0.00    +0.000 OA
ATOM   1703  C3' A   B  70      -3.555 -16.524 -27.677  0.00  0.00    +0.000 C 
ATOM   1704  C2' A   B  70      -2.854 -15.797 -26.539  0.00  0.00    +0.000 C 
ATOM   1705  C1' A   B  70      -1.583 -15.311 -27.239  0.00  0.00    +0.000 C 
BRANCH17051706
ATOM   1706  N9  A   B  70      -1.746 -13.959 -27.804  0.00  0.00    +0.000 N 
ATOM   1707  C8  A   B  70      -2.142 -13.623 -29.074  0.00  0.00    +0.000 A 
ATOM   1708  N7  A   B  70      -2.193 -12.329 -29.289  0.00  0.00    +0.000 NA
ATOM   1709  C5  A   B  70      -1.804 -11.774 -28.077  0.00  0.00    +0.000 A 
ATOM   1710  C6  A   B  70      -1.650 -10.443 -27.648  0.00  0.00    +0.000 A 
ATOM   1711  N1  A   B  70      -1.248 -10.234 -26.378  0.00  0.00    +0.000 NA
ATOM   1712  C2  A   B  70      -1.016 -11.296 -25.596  0.00  0.00    +0.000 A 
ATOM   1713  N3  A   B  70      -1.124 -12.593 -25.883  0.00  0.00    +0.000 NA
ATOM   1714  C4  A   B  70      -1.529 -12.766 -27.154  0.00  0.00    +0.000 A 
BRANCH17101715
ATOM   1715  N6  A   B  70      -1.888  -9.380 -28.435  0.00  0.00    +0.000 N 
ATOM   1716  H   A   B  70      -2.182  -9.512 -29.365  0.00  0.00    +0.000 HD
ATOM   1717  H   A   B  70      -1.768  -8.469 -28.081  0.00  0.00    +0.000 HD
ENDBRANCH17101715
ENDBRANCH17051706
BRANCH17041718
ATOM   1718  O2' A   B  70      -2.487 -16.693 -25.503  0.00  0.00    +0.000 OA
ATOM   1719  H   A   B  70      -1.937 -17.403 -25.869  0.00  0.00    +0.000 HD
ENDBRANCH17041718
BRANCH17031720
ATOM   1720  O3' A   B  70      -4.517 -17.470 -27.240  0.00  0.00    +0.000 OA
BRANCH17201721
ATOM   1721  P   U   B  71      -6.084 -17.109 -27.284  0.00  0.00    +0.000 P 
ATOM   1722  OP2 U   B  71      -6.319 -16.228 -28.460  0.00  0.00    +0.000 OA
BRANCH17211723
ATOM   1723  OP1 U   B  71      -6.852 -18.373 -27.140  0.00  0.00    +0.000 OA
ATOM   1724  H   U   B  71      -6.733 -18.916 -27.935  0.00  0.00    +0.000 HD
ENDBRANCH17211723
BRANCH17211725
ATOM   1725  O5' U   B  71      -6.299 -16.238 -25.961  0.00  0.00    +0.000 OA
BRANCH17251726
ATOM   1726  C5' U   B  71      -6.122 -16.811 -24.677  0.00  0.00    +0.000 C 
BRANCH17261727
ATOM   1727  C4' U   B  71      -6.020 -15.752 -23.603  0.00  0.00    +0.000 C 
ATOM   1728  O4' U   B  71      -4.860 -14.911 -23.849  0.00  0.00    +0.000 OA
ATOM   1729  C3' U   B  71      -7.173 -14.770 -23.524  0.00  0.00    +0.000 C 
ATOM   1730  C2' U   B  71      -6.538 -13.575 -22.823  0.00  0.00    +0.000 C 
ATOM   1731  C1' U   B  71      -5.130 -13.589 -23.431  0.00  0.00    +0.000 C 
BRANCH17311732
ATOM   1732  N1  U   B  71      -5.027 -12.689 -24.605  0.00  0.00    +0.000 N 
ATOM   1733  C2  U   B  71      -4.774 -11.352 -24.360  0.00  0.00    +0.000 A 
ATOM   1734  O2  U   B  71      -4.632 -10.899 -23.236  0.00  0.00    +0.000 OA
ATOM   1735  N3  U   B  71      -4.690 -10.561 -25.483  0.00  0.00    +0.000 N 
ATOM   1736  C4  U   B  71      -4.830 -10.963 -26.798  0.00  0.00    +0.000 A 
ATOM   1737  O4  U   B  71      -4.727 -10.129 -27.701  0.00  0.00    +0.000 OA
ATOM   1738  C5  U   B  71      -5.090 -12.359 -26.965  0.00  0.00    +0.000 A 
ATOM   1739  C6  U   B  71      -5.177 -13.153 -25.890  0.00  0.00    +0.000 A 
ATOM   1740  H   U   B  71      -4.511  -9.605 -25.333  0.00  0.00    +0.000 HD
ENDBRANCH17311732
BRANCH17301741
ATOM   1741  O2' U   B  71      -6.427 -13.799 -21.428  0.00  0.00    +0.000 OA
ATOM   1742  H   U   B  71      -5.930 -14.617 -21.270  0.00  0.00    +0.000 HD
ENDBRANCH17301741
BRANCH17291743
ATOM   1743  O3' U   B  71      -8.300 -15.295 -22.842  0.00  0.00    +0.000 OA
BRANCH17431744
ATOM   1744  P   C   B  72      -9.786 -14.799 -23.237  0.00  0.00    +0.000 P 
ATOM   1745  OP2 C   B  72      -9.820 -14.575 -24.709  0.00  0.00    +0.000 OA
BRANCH17441746
ATOM   1746  OP1 C   B  72     -10.760 -15.726 -22.604  0.00  0.00    +0.000 OA
ATOM   1747  H   C   B  72     -10.699 -16.597 -23.026  0.00  0.00    +0.000 HD
ENDBRANCH17441746
BRANCH17441748
ATOM   1748  O5' C   B  72      -9.912 -13.378 -22.521  0.00  0.00    +0.000 OA
BRANCH17481749
ATOM   1749  C5' C   B  72      -9.865 -13.270 -21.111  0.00  0.00    +0.000 C 
BRANCH17491750
ATOM   1750  C4' C   B  72      -9.710 -11.835 -20.665  0.00  0.00    +0.000 C 
ATOM   1751  O4' C   B  72      -8.491 -11.274 -21.219  0.00  0.00    +0.000 OA
ATOM   1752  C3' C   B  72     -10.792 -10.874 -21.121  0.00  0.00    +0.000 C 
ATOM   1753  C2' C   B  72     -10.092  -9.522 -21.041  0.00  0.00    +0.000 C 
ATOM   1754  C1' C   B  72      -8.672  -9.896 -21.483  0.00  0.00    +0.000 C 
BRANCH17541755
ATOM   1755  N1  C   B  72      -8.457  -9.655 -22.931  0.00  0.00    +0.000 N 
ATOM   1756  C2  C   B  72      -8.169  -8.353 -23.355  0.00  0.00    +0.000 A 
ATOM   1757  O2  C   B  72      -8.102  -7.443 -22.517  0.00  0.00    +0.000 OA
ATOM   1758  N3  C   B  72      -7.970  -8.120 -24.677  0.00  0.00    +0.000 NA
ATOM   1759  C4  C   B  72      -8.048  -9.122 -25.558  0.00  0.00    +0.000 A 
ATOM   1760  N4  C   B  72      -7.844  -8.838 -26.849  0.00  0.00    +0.000 N 
ATOM   1761  C5  C   B  72      -8.338 -10.454 -25.148  0.00  0.00    +0.000 A 
ATOM   1762  C6  C   B  72      -8.533 -10.673 -23.841  0.00  0.00    +0.000 A 
ATOM   1763  H   C   B  72      -7.894  -9.553 -27.524  0.00  0.00    +0.000 HD
ATOM   1764  H   C   B  72      -7.644  -7.914 -27.124  0.00  0.00    +0.000 HD
ENDBRANCH17541755
BRANCH17531765
ATOM   1765  O2' C   B  72     -10.035  -9.054 -19.704  0.00  0.00    +0.000 OA
ATOM   1766  H   C   B  72      -9.602  -9.719 -19.147  0.00  0.00    +0.000 HD
ENDBRANCH17531765
BRANCH17521767
ATOM   1767  O3' C   B  72     -11.961 -10.946 -20.318  0.00  0.00    +0.000 OA
BRANCH17671768
ATOM   1768  P   U   B  73     -13.413 -10.664 -20.974  0.00  0.00    +0.000 P 
ATOM   1769  OP2 U   B  73     -13.434 -11.297 -22.319  0.00  0.00    +0.000 OA
BRANCH17681770
ATOM   1770  OP1 U   B  73     -14.441 -11.027 -19.969  0.00  0.00    +0.000 OA
ATOM   1771  H   U   B  73     -15.324 -10.867 -20.337  0.00  0.00    +0.000 HD
ENDBRANCH17681770
BRANCH17681772
ATOM   1772  O5' U   B  73     -13.441  -9.075 -21.176  0.00  0.00    +0.000 OA
BRANCH17721773
ATOM   1773  C5' U   B  73     -13.394  -8.196 -20.073  0.00  0.00    +0.000 C 
BRANCH17731774
ATOM   1774  C4' U   B  73     -13.184  -6.764 -20.510  0.00  0.00    +0.000 C 
ATOM   1775  O4' U   B  73     -11.946  -6.657 -21.262  0.00  0.00    +0.000 OA
ATOM   1776  C3' U   B  73     -14.233  -6.191 -21.441  0.00  0.00    +0.000 C 
ATOM   1777  C2' U   B  73     -13.484  -5.073 -22.157  0.00  0.00    +0.000 C 
ATOM   1778  C1' U   B  73     -12.072  -5.675 -22.267  0.00  0.00    +0.000 C 
BRANCH17781779
ATOM   1779  N1  U   B  73     -11.822  -6.305 -23.581  0.00  0.00    +0.000 N 
ATOM   1780  C2  U   B  73     -11.449  -5.474 -24.624  0.00  0.00    +0.000 A 
ATOM   1781  O2  U   B  73     -11.328  -4.268 -24.503  0.00  0.00    +0.000 OA
ATOM   1782  N3  U   B  73     -11.225  -6.112 -25.821  0.00  0.00    +0.000 N 
ATOM   1783  C4  U   B  73     -11.330  -7.465 -26.076  0.00  0.00    +0.000 A 
ATOM   1784  O4  U   B  73     -11.094  -7.888 -27.211  0.00  0.00    +0.000 OA
ATOM   1785  C5  U   B  73     -11.715  -8.253 -24.947  0.00  0.00    +0.000 A 
ATOM   1786  C6  U   B  73     -11.942  -7.659 -23.768  0.00  0.00    +0.000 A 
ATOM   1787  H   U   B  73     -10.961  -5.542 -26.579  0.00  0.00    +0.000 HD
ENDBRANCH17781779
BRANCH17771788
ATOM   1788  O2' U   B  73     -13.414  -3.910 -21.349  0.00  0.00    +0.000 OA
ATOM   1789  H   U   B  73     -13.006  -4.132 -20.497  0.00  0.00    +0.000 HD
ENDBRANCH17771788
BRANCH17761790
ATOM   1790  O3' U   B  73     -15.381  -5.733 -20.744  0.00  0.00    +0.000 OA
BRANCH17901791
ATOM   1791  P   C   B  74     -16.874  -5.975 -21.281  0.00  0.00    +0.000 P 
ATOM   1792  OP2 C   B  74     -17.100  -5.087 -22.449  0.00  0.00    +0.000 OA
BRANCH17911793
ATOM   1793  OP1 C   B  74     -17.094  -7.435 -21.414  0.00  0.00    +0.000 OA
ATOM   1794  H   C   B  74     -16.556  -7.778 -22.145  0.00  0.00    +0.000 HD
ENDBRANCH17911793
BRANCH17911795
ATOM   1795  O5' C   B  74     -17.771  -5.444 -20.073  0.00  0.00    +0.000 OA
BRANCH17951796
ATOM   1796  C5' C   B  74     -17.715  -6.064 -18.792  0.00  0.00    +0.000 C 
BRANCH17961797
ATOM   1797  C4' C   B  74     -17.581  -5.053 -17.675  0.00  0.00    +0.000 C 
ATOM   1798  O4' C   B  74     -16.291  -4.383 -17.806  0.00  0.00    +0.000 OA
ATOM   1799  C3' C   B  74     -18.642  -3.957 -17.668  0.00  0.00    +0.000 C 
ATOM   1800  C2' C   B  74     -17.928  -2.795 -18.333  0.00  0.00    +0.000 C 
ATOM   1801  C1' C   B  74     -16.483  -2.985 -17.855  0.00  0.00    +0.000 C 
BRANCH18011802
ATOM   1802  N1  C   B  74     -15.460  -2.407 -18.753  0.00  0.00    +0.000 N 
ATOM   1803  C2  C   B  74     -14.421  -1.656 -18.192  0.00  0.00    +0.000 A 
ATOM   1804  O2  C   B  74     -14.371  -1.507 -16.963  0.00  0.00    +0.000 OA
ATOM   1805  N3  C   B  74     -13.477  -1.120 -19.013  0.00  0.00    +0.000 NA
ATOM   1806  C4  C   B  74     -13.551  -1.313 -20.333  0.00  0.00    +0.000 A 
ATOM   1807  N4  C   B  74     -12.600  -0.764 -21.099  0.00  0.00    +0.000 N 
ATOM   1808  C5  C   B  74     -14.606  -2.069 -20.926  0.00  0.00    +0.000 A 
ATOM   1809  C6  C   B  74     -15.532  -2.594 -20.108  0.00  0.00    +0.000 A 
ATOM   1810  H   C   B  74     -12.623  -0.886 -22.076  0.00  0.00    +0.000 HD
ATOM   1811  H   C   B  74     -11.877  -0.238 -20.686  0.00  0.00    +0.000 HD
ENDBRANCH18011802
BRANCH18001812
ATOM   1812  O2' C   B  74     -18.421  -1.527 -17.978  0.00  0.00    +0.000 OA
ATOM   1813  H   C   B  74     -18.350  -1.410 -17.018  0.00  0.00    +0.000 HD
ENDBRANCH18001812
BRANCH17991814
ATOM   1814  O3' C   B  74     -18.966  -3.620 -16.314  0.00  0.00    +0.000 OA
BRANCH18141815
ATOM   1815  P   C   B  75     -20.521  -3.677 -15.917  0.00  0.00    +0.000 P 
ATOM   1816  OP1 C   B  75     -21.113  -4.864 -16.566  0.00  0.00    +0.000 OA
BRANCH18151817
ATOM   1817  OP2 C   B  75     -21.076  -2.335 -16.147  0.00  0.00    +0.000 OA
ATOM   1818  H   C   B  75     -21.089  -2.149 -17.099  0.00  0.00    +0.000 HD
ENDBRANCH18151817
BRANCH18151819
ATOM   1819  O5' C   B  75     -20.519  -3.939 -14.341  0.00  0.00    +0.000 OA
BRANCH18191820
ATOM   1820  C5' C   B  75     -19.844  -3.056 -13.462  0.00  0.00    +0.000 C 
BRANCH18201821
ATOM   1821  C4' C   B  75     -19.841  -3.575 -12.047  0.00  0.00    +0.000 C 
ATOM   1822  O4' C   B  75     -19.772  -5.016 -12.061  0.00  0.00    +0.000 OA
ATOM   1823  C3' C   B  75     -18.667  -3.112 -11.191  0.00  0.00    +0.000 C 
ATOM   1824  C2' C   B  75     -17.665  -4.233 -11.378  0.00  0.00    +0.000 C 
ATOM   1825  C1' C   B  75     -18.598  -5.457 -11.411  0.00  0.00    +0.000 C 
BRANCH18251826
ATOM   1826  N1  C   B  75     -18.061  -6.627 -12.147  0.00  0.00    +0.000 N 
ATOM   1827  C2  C   B  75     -16.944  -7.305 -11.656  0.00  0.00    +0.000 A 
ATOM   1828  O2  C   B  75     -16.393  -6.917 -10.616  0.00  0.00    +0.000 OA
ATOM   1829  N3  C   B  75     -16.476  -8.385 -12.336  0.00  0.00    +0.000 NA
ATOM   1830  C4  C   B  75     -17.085  -8.778 -13.455  0.00  0.00    +0.000 A 
ATOM   1831  N4  C   B  75     -16.579  -9.847 -14.093  0.00  0.00    +0.000 N 
ATOM   1832  C5  C   B  75     -18.231  -8.115 -13.976  0.00  0.00    +0.000 A 
ATOM   1833  C6  C   B  75     -18.685  -7.055 -13.294  0.00  0.00    +0.000 A 
ATOM   1834  H   C   B  75     -16.999 -10.169 -14.923  0.00  0.00    +0.000 HD
ATOM   1835  H   C   B  75     -15.788 -10.308 -13.731  0.00  0.00    +0.000 HD
ENDBRANCH18251826
BRANCH18241836
ATOM   1836  O2' C   B  75     -16.712  -4.350 -10.333  0.00  0.00    +0.000 OA
ATOM   1837  H   C   B  75     -17.172  -4.484  -9.490  0.00  0.00    +0.000 HD
ENDBRANCH18241836
BRANCH18231838
ATOM   1838  O3' C   B  75     -19.085  -3.057  -9.828  0.00  0.00    +0.000 OA
BRANCH18381839
ATOM   1839  P   A   B  76     -19.706  -1.694  -9.228  0.00  0.00    +0.000 P 
ATOM   1840  OP2 A   B  76     -20.321  -0.904 -10.329  0.00  0.00    +0.000 OA
BRANCH18391841
ATOM   1841  OP1 A   B  76     -20.516  -2.076  -8.040  0.00  0.00    +0.000 OA
ATOM   1842  H   A   B  76     -21.308  -2.556  -8.329  0.00  0.00    +0.000 HD
ENDBRANCH18391841
BRANCH18391843
ATOM   1843  O5' A   B  76     -18.416  -0.908  -8.707  0.00  0.00    +0.000 OA
BRANCH18431844
ATOM   1844  C5' A   B  76     -17.722  -1.336  -7.548  0.00  0.00    +0.000 C 
BRANCH18441845
ATOM   1845  C4' A   B  76     -16.566  -0.412  -7.244  0.00  0.00    +0.000 C 
ATOM   1846  O4' A   B  76     -15.596  -0.481  -8.316  0.00  0.00    +0.000 OA
ATOM   1847  C3' A   B  76     -16.919   1.062  -7.157  0.00  0.00    +0.000 C 
ATOM   1848  C2' A   B  76     -15.595   1.741  -7.484  0.00  0.00    +0.000 C 
ATOM   1849  C1' A   B  76     -15.028   0.789  -8.542  0.00  0.00    +0.000 C 
BRANCH18491850
ATOM   1850  N9  A   B  76     -15.364   1.212  -9.911  0.00  0.00    +0.000 N 
ATOM   1851  C8  A   B  76     -16.295   0.654 -10.750  0.00  0.00    +0.000 A 
ATOM   1852  N7  A   B  76     -16.375   1.249 -11.918  0.00  0.00    +0.000 NA
ATOM   1853  C5  A   B  76     -15.433   2.267 -11.841  0.00  0.00    +0.000 A 
ATOM   1854  C6  A   B  76     -15.028   3.255 -12.753  0.00  0.00    +0.000 A 
ATOM   1855  N1  A   B  76     -14.060   4.113 -12.360  0.00  0.00    +0.000 NA
ATOM   1856  C2  A   B  76     -13.538   3.980 -11.130  0.00  0.00    +0.000 A 
ATOM   1857  N3  A   B  76     -13.839   3.093 -10.188  0.00  0.00    +0.000 NA
ATOM   1858  C4  A   B  76     -14.804   2.255 -10.611  0.00  0.00    +0.000 A 
BRANCH18541859
ATOM   1859  N6  A   B  76     -15.548   3.387 -13.980  0.00  0.00    +0.000 N 
ATOM   1860  H   A   B  76     -15.225   4.099 -14.578  0.00  0.00    +0.000 HD
ATOM   1861  H   A   B  76     -16.254   2.772 -14.284  0.00  0.00    +0.000 HD
ENDBRANCH18541859
ENDBRANCH18491850
BRANCH18471862
ATOM   1862  O3' A   B  76     -17.451   1.427  -5.895  0.00  0.00    +0.000 OA
ATOM   1863  H   A   B  76     -16.812   1.207  -5.199  0.00  0.00    +0.000 HD
ENDBRANCH18471862
BRANCH18481864
ATOM   1864  O2' A   B  76     -14.729   1.751  -6.368  0.00  0.00    +0.000 OA
ATOM   1865  H   A   B  76     -14.596   0.843  -6.054  0.00  0.00    +0.000 HD
ENDBRANCH18481864
ENDBRANCH18441845
ENDBRANCH18431844
ENDBRANCH18391843
ENDBRANCH18381839
ENDBRANCH18231838
ENDBRANCH18201821
ENDBRANCH18191820
ENDBRANCH18151819
ENDBRANCH18141815
ENDBRANCH17991814
ENDBRANCH17961797
ENDBRANCH17951796
ENDBRANCH17911795
ENDBRANCH17901791
ENDBRANCH17761790
ENDBRANCH17731774
ENDBRANCH17721773
ENDBRANCH17681772
ENDBRANCH17671768
ENDBRANCH17521767
ENDBRANCH17491750
ENDBRANCH17481749
ENDBRANCH17441748
ENDBRANCH17431744
ENDBRANCH17291743
ENDBRANCH17261727
ENDBRANCH17251726
ENDBRANCH17211725
ENDBRANCH17201721
ENDBRANCH17031720
ENDBRANCH17001701
ENDBRANCH16991700
ENDBRANCH16951699
ENDBRANCH16941695
ENDBRANCH16771694
ENDBRANCH16741675
ENDBRANCH16731674
ENDBRANCH16691673
ENDBRANCH16681669
ENDBRANCH16511668
ENDBRANCH16481649
ENDBRANCH16471648
ENDBRANCH16431647
ENDBRANCH16421643
ENDBRANCH16251642
ENDBRANCH16221623
ENDBRANCH16211622
ENDBRANCH16171621
ENDBRANCH16161617
ENDBRANCH15991616
ENDBRANCH15961597
ENDBRANCH15951596
ENDBRANCH15911595
ENDBRANCH15901591
ENDBRANCH15751590
ENDBRANCH15721573
ENDBRANCH15711572
ENDBRANCH15671571
ENDBRANCH15661567
ENDBRANCH15491566
ENDBRANCH15461547
ENDBRANCH15451546
ENDBRANCH15411545
ENDBRANCH15401541
ENDBRANCH15261540
ENDBRANCH15231524
ENDBRANCH15221523
ENDBRANCH15181522
ENDBRANCH15171518
ENDBRANCH 5521517
TORSDOF 362
