REMARK  Name = /storage/kiran-stuff/aaRS/phase2/energy_scoring/vina_182jobs/deep_domain_pro_PRO/ligand.h.pdb
REMARK  2 active torsions:
REMARK  status: ('A' for Active; 'I' for Inactive)
REMARK    1  A    between atoms: CA_2  and  C_3
REMARK    2  A    between atoms: C_3  and  OXT_8
REMARK                            x       y       z     vdW  Elec       q    Type
REMARK                         _______ _______ _______ _____ _____    ______ ____
ROOT
ATOM      1  N   PRO C   1     -13.262   6.069  -7.842  0.00  0.00    +0.000 NA
ATOM      2  CA  PRO C   1     -12.073   5.528  -7.196  0.00  0.00    +0.000 C 
ATOM      3  CB  PRO C   1     -12.568   5.098  -5.871  0.00  0.00    +0.000 C 
ATOM      4  CG  PRO C   1     -13.577   6.092  -5.557  0.00  0.00    +0.000 C 
ATOM      5  CD  PRO C   1     -14.051   6.639  -6.828  0.00  0.00    +0.000 C 
ATOM      6  H   PRO C   1     -13.778   5.325  -8.311  0.00  0.00    +0.000 HD
ENDROOT
BRANCH   2   7
ATOM      7  C   PRO C   1     -11.452   4.439  -8.017  0.00  0.00    +0.000 C 
ATOM      8  O   PRO C   1     -10.679   4.734  -8.913  0.00  0.00    +0.000 OA
BRANCH   7   9
ATOM      9  OXT PRO C   1     -11.755   3.272  -7.823  0.00  0.00    +0.000 OA
ATOM     10  H   PRO C   1     -12.350   3.051  -7.132  0.00  0.00    +0.000 HD
ENDBRANCH   7   9
ENDBRANCH   2   7
TORSDOF 2
