REMARK  Name = /storage/kiran-stuff/aaRS/phase2/energy_scoring/vina_182jobs/anc_prors_cat_GLU_GLU/ligand.h.pdb
REMARK  7 active torsions:
REMARK  status: ('A' for Active; 'I' for Inactive)
REMARK    1  A    between atoms: N_1  and  CA_2
REMARK    2  A    between atoms: CA_2  and  C_3
REMARK    3  A    between atoms: CA_2  and  CB_5
REMARK    4  A    between atoms: C_3  and  OXT_10
REMARK    5  A    between atoms: CB_5  and  CG_6
REMARK    6  A    between atoms: CG_6  and  CD_7
REMARK    7  A    between atoms: CD_7  and  OE2_9
REMARK                            x       y       z     vdW  Elec       q    Type
REMARK                         _______ _______ _______ _____ _____    ______ ____
ROOT
ATOM      1  CA  GLU B   1      11.290   8.214   3.791  0.00  0.00    +0.000 C 
ENDROOT
BRANCH   1   2
ATOM      2  N   GLU B   1      11.832   8.072   2.463  0.00  0.00    +0.000 NA
ATOM      3  H   GLU B   1      11.376   7.291   1.991  0.00  0.00    +0.000 HD
ATOM      4  H   GLU B   1      12.835   7.895   2.522  0.00  0.00    +0.000 HD
ENDBRANCH   1   2
BRANCH   1   5
ATOM      5  C   GLU B   1       9.789   8.444   3.725  0.00  0.00    +0.000 C 
ATOM      6  O   GLU B   1       9.318   9.072   2.764  0.00  0.00    +0.000 OA
BRANCH   5   7
ATOM      7  OXT GLU B   1       9.065   8.027   4.638  0.00  0.00    +0.000 OA
ATOM      8  H   GLU B   1       9.440   7.555   5.355  0.00  0.00    +0.000 HD
ENDBRANCH   5   7
ENDBRANCH   1   5
BRANCH   1   9
ATOM      9  CB  GLU B   1      11.959   9.375   4.510  0.00  0.00    +0.000 C 
BRANCH   9  10
ATOM     10  CG  GLU B   1      13.342   9.034   4.934  0.00  0.00    +0.000 C 
BRANCH  10  11
ATOM     11  CD  GLU B   1      14.317  10.132   4.609  0.00  0.00    +0.000 C 
ATOM     12  OE1 GLU B   1      14.941  10.089   3.531  0.00  0.00    +0.000 OA
BRANCH  11  13
ATOM     13  OE2 GLU B   1      14.466  11.066   5.428  0.00  0.00    +0.000 OA
ATOM     14  H   GLU B   1      13.981  11.068   6.230  0.00  0.00    +0.000 HD
ENDBRANCH  11  13
ENDBRANCH  10  11
ENDBRANCH   9  10
ENDBRANCH   1   9
TORSDOF 7
