REMARK  Name = /storage/kiran-stuff/aaRS/phase2/energy_scoring/vina_182jobs/anc_prors_cat_GLU_GLU/ligand.h.pdb
REMARK  7 active torsions:
REMARK  status: ('A' for Active; 'I' for Inactive)
REMARK    1  A    between atoms: N_1  and  CA_2
REMARK    2  A    between atoms: CA_2  and  C_3
REMARK    3  A    between atoms: CA_2  and  CB_5
REMARK    4  A    between atoms: C_3  and  OXT_10
REMARK    5  A    between atoms: CB_5  and  CG_6
REMARK    6  A    between atoms: CG_6  and  CD_7
REMARK    7  A    between atoms: CD_7  and  OE2_9
REMARK                            x       y       z     vdW  Elec       q    Type
REMARK                         _______ _______ _______ _____ _____    ______ ____
ROOT
ATOM      1  CA  GLU B   1      10.949   8.124   3.637  0.00  0.00    +0.000 C 
ENDROOT
BRANCH   1   2
ATOM      2  N   GLU B   1      11.757   7.889   2.467  0.00  0.00    +0.000 NA
ATOM      3  H   GLU B   1      11.518   6.982   2.065  0.00  0.00    +0.000 HD
ATOM      4  H   GLU B   1      12.743   7.896   2.727  0.00  0.00    +0.000 HD
ENDBRANCH   1   2
BRANCH   1   5
ATOM      5  C   GLU B   1       9.473   8.082   3.275  0.00  0.00    +0.000 C 
ATOM      6  O   GLU B   1       9.107   8.551   2.186  0.00  0.00    +0.000 OA
BRANCH   5   7
ATOM      7  OXT GLU B   1       8.659   7.609   4.077  0.00  0.00    +0.000 OA
ATOM      8  H   GLU B   1       8.956   7.260   4.895  0.00  0.00    +0.000 HD
ENDBRANCH   5   7
ENDBRANCH   1   5
BRANCH   1   9
ATOM      9  CB  GLU B   1      11.292   9.473   4.249  0.00  0.00    +0.000 C 
BRANCH   9  10
ATOM     10  CG  GLU B   1      12.531   9.405   5.068  0.00  0.00    +0.000 C 
BRANCH  10  11
ATOM     11  CD  GLU B   1      13.567  10.391   4.603  0.00  0.00    +0.000 C 
ATOM     12  OE1 GLU B   1      14.483   9.999   3.853  0.00  0.00    +0.000 OA
BRANCH  11  13
ATOM     13  OE2 GLU B   1      13.474  11.582   4.974  0.00  0.00    +0.000 OA
ATOM     14  H   GLU B   1      12.773  11.844   5.538  0.00  0.00    +0.000 HD
ENDBRANCH  11  13
ENDBRANCH  10  11
ENDBRANCH   9  10
ENDBRANCH   1   9
TORSDOF 7
