REMARK  Name = /storage/kiran-stuff/aaRS/phase2/energy_scoring/vina_182jobs/anc_thrrs_cat_PHE_PHE/ligand.h.pdb
REMARK  5 active torsions:
REMARK  status: ('A' for Active; 'I' for Inactive)
REMARK    1  A    between atoms: N_1  and  CA_2
REMARK    2  A    between atoms: CA_2  and  C_3
REMARK    3  A    between atoms: CA_2  and  CB_5
REMARK    4  A    between atoms: C_3  and  O_4
REMARK    5  A    between atoms: CB_5  and  CG_6
REMARK                            x       y       z     vdW  Elec       q    Type
REMARK                         _______ _______ _______ _____ _____    ______ ____
ROOT
ATOM      1  CA  PHE B   1      -0.797  -5.490   4.518  0.00  0.00    +0.000 C 
ENDROOT
BRANCH   1   2
ATOM      2  N   PHE B   1      -1.251  -6.436   3.507  0.00  0.00    +0.000 NA
ATOM      3  H   PHE B   1      -0.451  -6.771   2.972  0.00  0.00    +0.000 HD
ATOM      4  H   PHE B   1      -1.910  -5.973   2.881  0.00  0.00    +0.000 HD
ENDBRANCH   1   2
BRANCH   1   5
ATOM      5  C   PHE B   1      -1.986  -4.994   5.311  0.00  0.00    +0.000 C 
ATOM      6  OXT PHE B   1      -2.148  -3.824   5.515  0.00  0.00    +0.000 OA
BRANCH   5   7
ATOM      7  O   PHE B   1      -2.815  -5.815   5.734  0.00  0.00    +0.000 OA
ATOM      8  H   PHE B   1      -2.691  -6.729   5.577  0.00  0.00    +0.000 HD
ENDBRANCH   5   7
ENDBRANCH   1   5
BRANCH   1   9
ATOM      9  CB  PHE B   1      -0.070  -4.358   3.843  0.00  0.00    +0.000 C 
BRANCH   9  10
ATOM     10  CG  PHE B   1       1.391  -4.342   4.118  0.00  0.00    +0.000 A 
ATOM     11  CD1 PHE B   1       1.856  -3.985   5.368  0.00  0.00    +0.000 A 
ATOM     12  CD2 PHE B   1       2.279  -4.675   3.139  0.00  0.00    +0.000 A 
ATOM     13  CE1 PHE B   1       3.210  -3.966   5.618  0.00  0.00    +0.000 A 
ATOM     14  CE2 PHE B   1       3.640  -4.664   3.411  0.00  0.00    +0.000 A 
ATOM     15  CZ  PHE B   1       4.111  -4.300   4.647  0.00  0.00    +0.000 A 
ENDBRANCH   9  10
ENDBRANCH   1   9
TORSDOF 5
