REMARK  Name = /storage/kiran-stuff/aaRS/phase2/energy_scoring/vina_182jobs/anc_thrrs_cat_PHE_PHE/ligand.h.pdb
REMARK  5 active torsions:
REMARK  status: ('A' for Active; 'I' for Inactive)
REMARK    1  A    between atoms: N_1  and  CA_2
REMARK    2  A    between atoms: CA_2  and  C_3
REMARK    3  A    between atoms: CA_2  and  CB_5
REMARK    4  A    between atoms: C_3  and  O_4
REMARK    5  A    between atoms: CB_5  and  CG_6
REMARK                            x       y       z     vdW  Elec       q    Type
REMARK                         _______ _______ _______ _____ _____    ______ ____
ROOT
ATOM      1  CA  PHE B   1      -0.369  -7.003   5.266  0.00  0.00    +0.000 C 
ENDROOT
BRANCH   1   2
ATOM      2  N   PHE B   1       0.861  -7.642   4.818  0.00  0.00    +0.000 NA
ATOM      3  H   PHE B   1       1.650  -7.020   4.992  0.00  0.00    +0.000 HD
ATOM      4  H   PHE B   1       0.797  -7.839   3.819  0.00  0.00    +0.000 HD
ENDBRANCH   1   2
BRANCH   1   5
ATOM      5  C   PHE B   1      -1.538  -7.927   5.007  0.00  0.00    +0.000 C 
ATOM      6  OXT PHE B   1      -2.376  -7.652   4.195  0.00  0.00    +0.000 OA
BRANCH   5   7
ATOM      7  O   PHE B   1      -1.612  -8.997   5.631  0.00  0.00    +0.000 OA
ATOM      8  H   PHE B   1      -0.959  -9.215   6.266  0.00  0.00    +0.000 HD
ENDBRANCH   5   7
ENDBRANCH   1   5
BRANCH   1   9
ATOM      9  CB  PHE B   1      -0.532  -5.689   4.548  0.00  0.00    +0.000 C 
BRANCH   9  10
ATOM     10  CG  PHE B   1      -1.338  -4.695   5.304  0.00  0.00    +0.000 A 
ATOM     11  CD1 PHE B   1      -2.593  -5.033   5.770  0.00  0.00    +0.000 A 
ATOM     12  CD2 PHE B   1      -0.847  -3.445   5.538  0.00  0.00    +0.000 A 
ATOM     13  CE1 PHE B   1      -3.340  -4.108   6.466  0.00  0.00    +0.000 A 
ATOM     14  CE2 PHE B   1      -1.607  -2.529   6.252  0.00  0.00    +0.000 A 
ATOM     15  CZ  PHE B   1      -2.859  -2.853   6.710  0.00  0.00    +0.000 A 
ENDBRANCH   9  10
ENDBRANCH   1   9
TORSDOF 5
