REMARK  Name = /storage/kiran-stuff/aaRS/phase2/energy_scoring/vina_182jobs/modern_thrrs_THR_THR/ligand.h.pdb
REMARK  6 active torsions:
REMARK  status: ('A' for Active; 'I' for Inactive)
REMARK    1  A    between atoms: N_1  and  CA_2
REMARK    2  A    between atoms: CA_2  and  C_3
REMARK    3  A    between atoms: CA_2  and  CB_5
REMARK    4  A    between atoms: C_3  and  OXT_8
REMARK    5  A    between atoms: CB_5  and  OG1_6
REMARK    6  A    between atoms: CB_5  and  CG2_7
REMARK                            x       y       z     vdW  Elec       q    Type
REMARK                         _______ _______ _______ _____ _____    ______ ____
ROOT
ATOM      1  CA  THR B   1      -6.357   7.974   0.124  0.00  0.00    +0.000 C 
ENDROOT
BRANCH   1   2
ATOM      2  N   THR B   1      -6.497   7.123   1.290  0.00  0.00    +0.000 NA
ATOM      3  H   THR B   1      -5.628   7.132   1.824  0.00  0.00    +0.000 HD
ATOM      4  H   THR B   1      -6.702   6.169   0.992  0.00  0.00    +0.000 HD
ENDBRANCH   1   2
BRANCH   1   5
ATOM      5  C   THR B   1      -7.614   8.004  -0.712  0.00  0.00    +0.000 C 
ATOM      6  O   THR B   1      -7.730   8.854  -1.593  0.00  0.00    +0.000 OA
BRANCH   5   7
ATOM      7  OXT THR B   1      -8.474   7.161  -0.533  0.00  0.00    +0.000 OA
ATOM      8  H   THR B   1      -8.369   6.520   0.144  0.00  0.00    +0.000 HD
ENDBRANCH   5   7
ENDBRANCH   1   5
BRANCH   1   9
ATOM      9  CB  THR B   1      -5.186   7.510  -0.729  0.00  0.00    +0.000 C 
ATOM     10  CG2 THR B   1      -4.068   6.901   0.079  0.00  0.00    +0.000 C 
BRANCH   9  11
ATOM     11  OG1 THR B   1      -4.686   8.618  -1.418  0.00  0.00    +0.000 OA
ATOM     12  H   THR B   1      -4.372   9.279  -0.781  0.00  0.00    +0.000 HD
ENDBRANCH   9  11
ENDBRANCH   1   9
TORSDOF 5
