REMARK  Name = /storage/kiran-stuff/aaRS/phase2/energy_scoring/vina_182jobs/modern_thrrs_thr_THR/ligand.h.pdb
REMARK  6 active torsions:
REMARK  status: ('A' for Active; 'I' for Inactive)
REMARK    1  A    between atoms: N_1  and  CA_2
REMARK    2  A    between atoms: CA_2  and  C_3
REMARK    3  A    between atoms: CA_2  and  CB_5
REMARK    4  A    between atoms: C_3  and  O_4
REMARK    5  A    between atoms: CB_5  and  OG1_6
REMARK    6  A    between atoms: CB_5  and  CG2_7
REMARK                            x       y       z     vdW  Elec       q    Type
REMARK                         _______ _______ _______ _____ _____    ______ ____
ROOT
ATOM      1  CA  THR C   1     -18.041  15.475  -1.784  0.00  0.00    +0.000 C 
ENDROOT
BRANCH   1   2
ATOM      2  N   THR C   1     -18.802  16.585  -1.175  0.00  0.00    +0.000 NA
ATOM      3  H   THR C   1     -19.467  16.955  -1.854  0.00  0.00    +0.000 HD
ATOM      4  H   THR C   1     -18.158  17.324  -0.893  0.00  0.00    +0.000 HD
ENDBRANCH   1   2
BRANCH   1   5
ATOM      5  C   THR C   1     -17.043  14.909  -0.792  0.00  0.00    +0.000 C 
ATOM      6  OXT THR C   1     -17.050  13.697  -0.530  0.00  0.00    +0.000 OA
BRANCH   5   7
ATOM      7  O   THR C   1     -16.196  15.656  -0.288  0.00  0.00    +0.000 OA
ATOM      8  H   THR C   1     -16.199  16.571  -0.491  0.00  0.00    +0.000 HD
ENDBRANCH   5   7
ENDBRANCH   1   5
BRANCH   1   9
ATOM      9  CB  THR C   1     -17.323  15.955  -3.030  0.00  0.00    +0.000 C 
ATOM     10  CG2 THR C   1     -17.161  14.844  -4.009  0.00  0.00    +0.000 C 
BRANCH   9  11
ATOM     11  OG1 THR C   1     -18.059  17.021  -3.615  0.00  0.00    +0.000 OA
ATOM     12  H   THR C   1     -18.943  16.707  -3.861  0.00  0.00    +0.000 HD
ENDBRANCH   9  11
ENDBRANCH   1   9
TORSDOF 5
