REMARK  Name = /storage/kiran-stuff/aaRS/phase2/energy_scoring/vina_182jobs/modern_thrrs_THR_THR/ligand.h.pdb
REMARK  6 active torsions:
REMARK  status: ('A' for Active; 'I' for Inactive)
REMARK    1  A    between atoms: N_1  and  CA_2
REMARK    2  A    between atoms: CA_2  and  C_3
REMARK    3  A    between atoms: CA_2  and  CB_5
REMARK    4  A    between atoms: C_3  and  OXT_8
REMARK    5  A    between atoms: CB_5  and  OG1_6
REMARK    6  A    between atoms: CB_5  and  CG2_7
REMARK                            x       y       z     vdW  Elec       q    Type
REMARK                         _______ _______ _______ _____ _____    ______ ____
ROOT
ATOM      1  CA  THR B   1      -5.345   7.631   0.079  0.00  0.00    +0.000 C 
ENDROOT
BRANCH   1   2
ATOM      2  N   THR B   1      -5.272   6.722   1.207  0.00  0.00    +0.000 NA
ATOM      3  H   THR B   1      -4.343   6.772   1.624  0.00  0.00    +0.000 HD
ATOM      4  H   THR B   1      -5.451   5.770   0.888  0.00  0.00    +0.000 HD
ENDBRANCH   1   2
BRANCH   1   5
ATOM      5  C   THR B   1      -6.700   7.605  -0.586  0.00  0.00    +0.000 C 
ATOM      6  O   THR B   1      -6.918   8.353  -1.537  0.00  0.00    +0.000 OA
BRANCH   5   7
ATOM      7  OXT THR B   1      -7.542   6.814  -0.201  0.00  0.00    +0.000 OA
ATOM      8  H   THR B   1      -7.359   6.251   0.526  0.00  0.00    +0.000 HD
ENDBRANCH   5   7
ENDBRANCH   1   5
BRANCH   1   9
ATOM      9  CB  THR B   1      -4.268   7.292  -0.941  0.00  0.00    +0.000 C 
ATOM     10  CG2 THR B   1      -3.005   6.756  -0.314  0.00  0.00    +0.000 C 
BRANCH   9  11
ATOM     11  OG1 THR B   1      -3.957   8.457  -1.646  0.00  0.00    +0.000 OA
ATOM     12  H   THR B   1      -3.612   9.124  -1.032  0.00  0.00    +0.000 HD
ENDBRANCH   9  11
ENDBRANCH   1   9
TORSDOF 5
