REMARK  Name = /storage/kiran-stuff/aaRS/phase2/energy_scoring/vina_182jobs/modern_thrrs_thr_THR/ligand.h.pdb
REMARK  621 active torsions:
REMARK  status: ('A' for Active; 'I' for Inactive)
REMARK    1  A    between atoms: OP3_1  and  P_2
REMARK    2  A    between atoms: P_2  and  OP1_3
REMARK    3  A    between atoms: P_2  and  O5'_5
REMARK    4  A    between atoms: O5'_5  and  C5'_6
REMARK    5  A    between atoms: C5'_6  and  C4'_7
REMARK    6  A    between atoms: C3'_9  and  O3'_10
REMARK    7  A    between atoms: O3'_10  and  P_22
REMARK    8  A    between atoms: C2'_11  and  O2'_12
REMARK    9  A    between atoms: C1'_13  and  N1_14
REMARK   10  A    between atoms: P_22  and  OP1_23
REMARK   11  A    between atoms: P_22  and  O5'_25
REMARK   12  A    between atoms: O5'_25  and  C5'_26
REMARK   13  A    between atoms: C5'_26  and  C4'_27
REMARK   14  A    between atoms: C3'_29  and  O3'_30
REMARK   15  A    between atoms: O3'_30  and  P_42
REMARK   16  A    between atoms: C2'_31  and  O2'_32
REMARK   17  A    between atoms: C1'_33  and  N1_34
REMARK   18  A    between atoms: P_42  and  OP1_43
REMARK   19  A    between atoms: P_42  and  O5'_45
REMARK   20  A    between atoms: O5'_45  and  C5'_46
REMARK   21  A    between atoms: C5'_46  and  C4'_47
REMARK   22  A    between atoms: C3'_49  and  O3'_50
REMARK   23  A    between atoms: O3'_50  and  P_64
REMARK   24  A    between atoms: C2'_51  and  O2'_52
REMARK   25  A    between atoms: C1'_53  and  N9_54
REMARK   26  A    between atoms: C6_58  and  N6_59
REMARK   27  A    between atoms: P_64  and  OP1_65
REMARK   28  A    between atoms: P_64  and  O5'_67
REMARK   29  A    between atoms: O5'_67  and  C5'_68
REMARK   30  A    between atoms: C5'_68  and  C4'_69
REMARK   31  A    between atoms: C3'_71  and  O3'_72
REMARK   32  A    between atoms: O3'_72  and  P_86
REMARK   33  A    between atoms: C2'_73  and  O2'_74
REMARK   34  A    between atoms: C1'_75  and  N9_76
REMARK   35  A    between atoms: C6_80  and  N6_81
REMARK   36  A    between atoms: P_86  and  OP2_88
REMARK   37  A    between atoms: P_86  and  O5'_89
REMARK   38  A    between atoms: O5'_89  and  C5'_90
REMARK   39  A    between atoms: C5'_90  and  C4'_91
REMARK   40  A    between atoms: C3'_93  and  O3'_94
REMARK   41  A    between atoms: O3'_94  and  P_106
REMARK   42  A    between atoms: C2'_95  and  O2'_96
REMARK   43  A    between atoms: C1'_97  and  N1_98
REMARK   44  A    between atoms: P_106  and  OP2_108
REMARK   45  A    between atoms: P_106  and  O5'_109
REMARK   46  A    between atoms: O5'_109  and  C5'_110
REMARK   47  A    between atoms: C5'_110  and  C4'_111
REMARK   48  A    between atoms: C3'_113  and  O3'_114
REMARK   49  A    between atoms: O3'_114  and  P_128
REMARK   50  A    between atoms: C2'_115  and  O2'_116
REMARK   51  A    between atoms: C1'_117  and  N9_118
REMARK   52  A    between atoms: P_128  and  OP2_130
REMARK   53  A    between atoms: P_128  and  O5'_131
REMARK   54  A    between atoms: O5'_131  and  C5'_132
REMARK   55  A    between atoms: C5'_132  and  C4'_133
REMARK   56  A    between atoms: C3'_135  and  O3'_136
REMARK   57  A    between atoms: O3'_136  and  P_148
REMARK   58  A    between atoms: C2'_137  and  O2'_138
REMARK   59  A    between atoms: C1'_139  and  N1_140
REMARK   60  A    between atoms: P_148  and  OP2_150
REMARK   61  A    between atoms: P_148  and  O5'_151
REMARK   62  A    between atoms: O5'_151  and  C5'_152
REMARK   63  A    between atoms: C5'_152  and  C4'_153
REMARK   64  A    between atoms: C3'_155  and  O3'_156
REMARK   65  A    between atoms: O3'_156  and  P_168
REMARK   66  A    between atoms: C2'_157  and  O2'_158
REMARK   67  A    between atoms: C1'_159  and  N1_160
REMARK   68  A    between atoms: P_168  and  OP1_169
REMARK   69  A    between atoms: P_168  and  O5'_171
REMARK   70  A    between atoms: O5'_171  and  C5'_172
REMARK   71  A    between atoms: C5'_172  and  C4'_173
REMARK   72  A    between atoms: C3'_175  and  O3'_176
REMARK   73  A    between atoms: O3'_176  and  P_190
REMARK   74  A    between atoms: C2'_177  and  O2'_178
REMARK   75  A    between atoms: C1'_179  and  N9_180
REMARK   76  A    between atoms: P_190  and  OP2_192
REMARK   77  A    between atoms: P_190  and  O5'_193
REMARK   78  A    between atoms: O5'_193  and  C5'_194
REMARK   79  A    between atoms: C5'_194  and  C4'_195
REMARK   80  A    between atoms: C3'_197  and  O3'_198
REMARK   81  A    between atoms: O3'_198  and  P_210
REMARK   82  A    between atoms: C2'_199  and  O2'_200
REMARK   83  A    between atoms: C1'_201  and  N1_202
REMARK   84  A    between atoms: P_210  and  OP1_211
REMARK   85  A    between atoms: P_210  and  O5'_213
REMARK   86  A    between atoms: O5'_213  and  C5'_214
REMARK   87  A    between atoms: C5'_214  and  C4'_215
REMARK   88  A    between atoms: C3'_217  and  O3'_218
REMARK   89  A    between atoms: O3'_218  and  P_230
REMARK   90  A    between atoms: C2'_219  and  O2'_220
REMARK   91  A    between atoms: C1'_221  and  N1_222
REMARK   92  A    between atoms: P_230  and  OP1_231
REMARK   93  A    between atoms: P_230  and  O5'_233
REMARK   94  A    between atoms: O5'_233  and  C5'_234
REMARK   95  A    between atoms: C5'_234  and  C4'_235
REMARK   96  A    between atoms: C3'_237  and  O3'_238
REMARK   97  A    between atoms: O3'_238  and  P_250
REMARK   98  A    between atoms: C2'_239  and  O2'_240
REMARK   99  A    between atoms: C1'_241  and  N1_242
REMARK  100  A    between atoms: P_250  and  OP1_251
REMARK  101  A    between atoms: P_250  and  O5'_253
REMARK  102  A    between atoms: O5'_253  and  C5'_254
REMARK  103  A    between atoms: C5'_254  and  C4'_255
REMARK  104  A    between atoms: C3'_257  and  O3'_258
REMARK  105  A    between atoms: O3'_258  and  P_270
REMARK  106  A    between atoms: C2'_259  and  O2'_260
REMARK  107  A    between atoms: C1'_261  and  N1_262
REMARK  108  A    between atoms: P_270  and  OP2_272
REMARK  109  A    between atoms: P_270  and  O5'_273
REMARK  110  A    between atoms: O5'_273  and  C5'_274
REMARK  111  A    between atoms: C5'_274  and  C4'_275
REMARK  112  A    between atoms: C3'_277  and  O3'_278
REMARK  113  A    between atoms: O3'_278  and  P_292
REMARK  114  A    between atoms: C2'_279  and  O2'_280
REMARK  115  A    between atoms: C1'_281  and  N9_282
REMARK  116  A    between atoms: P_292  and  OP2_294
REMARK  117  A    between atoms: P_292  and  O5'_295
REMARK  118  A    between atoms: O5'_295  and  C5'_296
REMARK  119  A    between atoms: C5'_296  and  C4'_297
REMARK  120  A    between atoms: C3'_299  and  O3'_300
REMARK  121  A    between atoms: O3'_300  and  P_312
REMARK  122  A    between atoms: C2'_301  and  O2'_302
REMARK  123  A    between atoms: C1'_303  and  N1_304
REMARK  124  A    between atoms: P_312  and  OP2_314
REMARK  125  A    between atoms: P_312  and  O5'_315
REMARK  126  A    between atoms: O5'_315  and  C5'_316
REMARK  127  A    between atoms: C5'_316  and  C4'_317
REMARK  128  A    between atoms: C3'_319  and  O3'_320
REMARK  129  A    between atoms: O3'_320  and  P_332
REMARK  130  A    between atoms: C2'_321  and  O2'_322
REMARK  131  A    between atoms: C1'_323  and  N1_324
REMARK  132  A    between atoms: P_332  and  OP2_334
REMARK  133  A    between atoms: P_332  and  O5'_335
REMARK  134  A    between atoms: O5'_335  and  C5'_336
REMARK  135  A    between atoms: C5'_336  and  C4'_337
REMARK  136  A    between atoms: C3'_339  and  O3'_340
REMARK  137  A    between atoms: O3'_340  and  P_352
REMARK  138  A    between atoms: C2'_341  and  O2'_342
REMARK  139  A    between atoms: C1'_343  and  N1_344
REMARK  140  A    between atoms: P_352  and  OP2_354
REMARK  141  A    between atoms: P_352  and  O5'_355
REMARK  142  A    between atoms: O5'_355  and  C5'_356
REMARK  143  A    between atoms: C5'_356  and  C4'_357
REMARK  144  A    between atoms: C3'_359  and  O3'_360
REMARK  145  A    between atoms: O3'_360  and  P_375
REMARK  146  A    between atoms: C2'_361  and  O2'_362
REMARK  147  A    between atoms: C1'_363  and  N9_364
REMARK  148  A    between atoms: P_375  and  OP2_377
REMARK  149  A    between atoms: P_375  and  O5'_378
REMARK  150  A    between atoms: O5'_378  and  C5'_379
REMARK  151  A    between atoms: C5'_379  and  C4'_380
REMARK  152  A    between atoms: C3'_382  and  O3'_383
REMARK  153  A    between atoms: O3'_383  and  P_397
REMARK  154  A    between atoms: C2'_384  and  O2'_385
REMARK  155  A    between atoms: C1'_386  and  N9_387
REMARK  156  A    between atoms: P_397  and  OP2_399
REMARK  157  A    between atoms: P_397  and  O5'_400
REMARK  158  A    between atoms: O5'_400  and  C5'_401
REMARK  159  A    between atoms: C5'_401  and  C4'_402
REMARK  160  A    between atoms: C3'_404  and  O3'_405
REMARK  161  A    between atoms: O3'_405  and  P_419
REMARK  162  A    between atoms: C2'_406  and  O2'_407
REMARK  163  A    between atoms: C1'_408  and  N9_409
REMARK  164  A    between atoms: P_419  and  OP1_420
REMARK  165  A    between atoms: P_419  and  O5'_422
REMARK  166  A    between atoms: O5'_422  and  C5'_423
REMARK  167  A    between atoms: C5'_423  and  C4'_424
REMARK  168  A    between atoms: C3'_426  and  O3'_427
REMARK  169  A    between atoms: O3'_427  and  P_441
REMARK  170  A    between atoms: C2'_428  and  O2'_429
REMARK  171  A    between atoms: C1'_430  and  N9_431
REMARK  172  A    between atoms: C6_435  and  N6_436
REMARK  173  A    between atoms: P_441  and  OP1_442
REMARK  174  A    between atoms: P_441  and  O5'_444
REMARK  175  A    between atoms: O5'_444  and  C5'_445
REMARK  176  A    between atoms: C5'_445  and  C4'_446
REMARK  177  A    between atoms: C3'_448  and  O3'_449
REMARK  178  A    between atoms: O3'_449  and  P_461
REMARK  179  A    between atoms: C2'_450  and  O2'_451
REMARK  180  A    between atoms: C1'_452  and  N1_453
REMARK  181  A    between atoms: P_461  and  OP1_462
REMARK  182  A    between atoms: P_461  and  O5'_464
REMARK  183  A    between atoms: O5'_464  and  C5'_465
REMARK  184  A    between atoms: C5'_465  and  C4'_466
REMARK  185  A    between atoms: C3'_468  and  O3'_469
REMARK  186  A    between atoms: O3'_469  and  P_481
REMARK  187  A    between atoms: C2'_470  and  O2'_471
REMARK  188  A    between atoms: C1'_472  and  N1_473
REMARK  189  A    between atoms: P_481  and  OP1_482
REMARK  190  A    between atoms: P_481  and  O5'_484
REMARK  191  A    between atoms: O5'_484  and  C5'_485
REMARK  192  A    between atoms: C5'_485  and  C4'_486
REMARK  193  A    between atoms: C3'_488  and  O3'_489
REMARK  194  A    between atoms: O3'_489  and  P_501
REMARK  195  A    between atoms: C2'_490  and  O2'_491
REMARK  196  A    between atoms: C1'_492  and  N1_493
REMARK  197  A    between atoms: P_501  and  OP1_502
REMARK  198  A    between atoms: P_501  and  O5'_504
REMARK  199  A    between atoms: O5'_504  and  C5'_505
REMARK  200  A    between atoms: C5'_505  and  C4'_506
REMARK  201  A    between atoms: C3'_508  and  O3'_509
REMARK  202  A    between atoms: O3'_509  and  P_521
REMARK  203  A    between atoms: C2'_510  and  O2'_511
REMARK  204  A    between atoms: C1'_512  and  N1_513
REMARK  205  A    between atoms: P_521  and  OP1_522
REMARK  206  A    between atoms: P_521  and  O5'_524
REMARK  207  A    between atoms: O5'_524  and  C5'_525
REMARK  208  A    between atoms: C5'_525  and  C4'_526
REMARK  209  A    between atoms: C3'_528  and  O3'_529
REMARK  210  A    between atoms: O3'_529  and  P_541
REMARK  211  A    between atoms: C2'_530  and  O2'_531
REMARK  212  A    between atoms: C1'_532  and  N1_533
REMARK  213  A    between atoms: P_541  and  OP2_543
REMARK  214  A    between atoms: P_541  and  O5'_544
REMARK  215  A    between atoms: O5'_544  and  C5'_545
REMARK  216  A    between atoms: C5'_545  and  C4'_546
REMARK  217  A    between atoms: C3'_548  and  O3'_549
REMARK  218  A    between atoms: O3'_549  and  P_561
REMARK  219  A    between atoms: C2'_550  and  O2'_551
REMARK  220  A    between atoms: C1'_552  and  N1_553
REMARK  221  A    between atoms: P_561  and  OP2_563
REMARK  222  A    between atoms: P_561  and  O5'_564
REMARK  223  A    between atoms: O5'_564  and  C5'_565
REMARK  224  A    between atoms: C5'_565  and  C4'_566
REMARK  225  A    between atoms: C3'_568  and  O3'_569
REMARK  226  A    between atoms: O3'_569  and  P_581
REMARK  227  A    between atoms: C2'_570  and  O2'_571
REMARK  228  A    between atoms: C1'_572  and  N1_573
REMARK  229  A    between atoms: P_581  and  OP2_583
REMARK  230  A    between atoms: P_581  and  O5'_584
REMARK  231  A    between atoms: O5'_584  and  C5'_585
REMARK  232  A    between atoms: C5'_585  and  C4'_586
REMARK  233  A    between atoms: C3'_588  and  O3'_589
REMARK  234  A    between atoms: O3'_589  and  P_603
REMARK  235  A    between atoms: C2'_590  and  O2'_591
REMARK  236  A    between atoms: C1'_592  and  N9_593
REMARK  237  A    between atoms: P_603  and  OP2_605
REMARK  238  A    between atoms: P_603  and  O5'_606
REMARK  239  A    between atoms: O5'_606  and  C5'_607
REMARK  240  A    between atoms: C5'_607  and  C4'_608
REMARK  241  A    between atoms: C3'_610  and  O3'_611
REMARK  242  A    between atoms: O3'_611  and  P_625
REMARK  243  A    between atoms: C2'_612  and  O2'_613
REMARK  244  A    between atoms: C1'_614  and  N9_615
REMARK  245  A    between atoms: P_625  and  OP2_627
REMARK  246  A    between atoms: P_625  and  O5'_628
REMARK  247  A    between atoms: O5'_628  and  C5'_629
REMARK  248  A    between atoms: C5'_629  and  C4'_630
REMARK  249  A    between atoms: C3'_632  and  O3'_633
REMARK  250  A    between atoms: O3'_633  and  P_647
REMARK  251  A    between atoms: C2'_634  and  O2'_635
REMARK  252  A    between atoms: C1'_636  and  N9_637
REMARK  253  A    between atoms: P_647  and  OP1_648
REMARK  254  A    between atoms: P_647  and  O5'_650
REMARK  255  A    between atoms: O5'_650  and  C5'_651
REMARK  256  A    between atoms: C5'_651  and  C4'_652
REMARK  257  A    between atoms: C3'_654  and  O3'_655
REMARK  258  A    between atoms: O3'_655  and  P_669
REMARK  259  A    between atoms: C2'_656  and  O2'_657
REMARK  260  A    between atoms: C1'_658  and  N9_659
REMARK  261  A    between atoms: C6_663  and  N6_664
REMARK  262  A    between atoms: P_669  and  OP1_670
REMARK  263  A    between atoms: P_669  and  O5'_672
REMARK  264  A    between atoms: O5'_672  and  C5'_673
REMARK  265  A    between atoms: C5'_673  and  C4'_674
REMARK  266  A    between atoms: C3'_676  and  O3'_677
REMARK  267  A    between atoms: O3'_677  and  P_689
REMARK  268  A    between atoms: C2'_678  and  O2'_679
REMARK  269  A    between atoms: C1'_680  and  N1_681
REMARK  270  A    between atoms: P_689  and  OP1_690
REMARK  271  A    between atoms: P_689  and  O5'_692
REMARK  272  A    between atoms: O5'_692  and  C5'_693
REMARK  273  A    between atoms: C5'_693  and  C4'_694
REMARK  274  A    between atoms: C3'_696  and  O3'_697
REMARK  275  A    between atoms: O3'_697  and  P_711
REMARK  276  A    between atoms: C2'_698  and  O2'_699
REMARK  277  A    between atoms: C1'_700  and  N9_701
REMARK  278  A    between atoms: C6_705  and  N6_706
REMARK  279  A    between atoms: P_711  and  OP1_712
REMARK  280  A    between atoms: P_711  and  O5'_714
REMARK  281  A    between atoms: O5'_714  and  C5'_715
REMARK  282  A    between atoms: C5'_715  and  C4'_716
REMARK  283  A    between atoms: C3'_718  and  O3'_719
REMARK  284  A    between atoms: O3'_719  and  P_733
REMARK  285  A    between atoms: C2'_720  and  O2'_721
REMARK  286  A    between atoms: C1'_722  and  N9_723
REMARK  287  A    between atoms: C6_727  and  N6_728
REMARK  288  A    between atoms: P_733  and  OP1_734
REMARK  289  A    between atoms: P_733  and  O5'_736
REMARK  290  A    between atoms: O5'_736  and  C5'_737
REMARK  291  A    between atoms: C5'_737  and  C4'_738
REMARK  292  A    between atoms: C3'_740  and  O3'_741
REMARK  293  A    between atoms: O3'_741  and  P_753
REMARK  294  A    between atoms: C2'_742  and  O2'_743
REMARK  295  A    between atoms: C1'_744  and  N1_745
REMARK  296  A    between atoms: P_753  and  OP2_755
REMARK  297  A    between atoms: P_753  and  O5'_756
REMARK  298  A    between atoms: O5'_756  and  C5'_757
REMARK  299  A    between atoms: C5'_757  and  C4'_758
REMARK  300  A    between atoms: C3'_760  and  O3'_761
REMARK  301  A    between atoms: O3'_761  and  P_775
REMARK  302  A    between atoms: C2'_762  and  O2'_763
REMARK  303  A    between atoms: C1'_764  and  N9_765
REMARK  304  A    between atoms: P_775  and  OP2_777
REMARK  305  A    between atoms: P_775  and  O5'_778
REMARK  306  A    between atoms: O5'_778  and  C5'_779
REMARK  307  A    between atoms: C5'_779  and  C4'_780
REMARK  308  A    between atoms: C3'_782  and  O3'_783
REMARK  309  A    between atoms: O3'_783  and  P_795
REMARK  310  A    between atoms: C2'_784  and  O2'_785
REMARK  311  A    between atoms: C1'_786  and  N1_787
REMARK  312  A    between atoms: P_795  and  OP2_797
REMARK  313  A    between atoms: P_795  and  O5'_798
REMARK  314  A    between atoms: O5'_798  and  C5'_799
REMARK  315  A    between atoms: C5'_799  and  C4'_800
REMARK  316  A    between atoms: C3'_802  and  O3'_803
REMARK  317  A    between atoms: O3'_803  and  P_815
REMARK  318  A    between atoms: C2'_804  and  O2'_805
REMARK  319  A    between atoms: C1'_806  and  N1_807
REMARK  320  A    between atoms: P_815  and  OP2_817
REMARK  321  A    between atoms: P_815  and  O5'_818
REMARK  322  A    between atoms: O5'_818  and  C5'_819
REMARK  323  A    between atoms: C5'_819  and  C4'_820
REMARK  324  A    between atoms: C3'_822  and  O3'_823
REMARK  325  A    between atoms: O3'_823  and  P_835
REMARK  326  A    between atoms: C2'_824  and  O2'_825
REMARK  327  A    between atoms: C1'_826  and  N1_827
REMARK  328  A    between atoms: P_835  and  OP2_837
REMARK  329  A    between atoms: P_835  and  O5'_838
REMARK  330  A    between atoms: O5'_838  and  C5'_839
REMARK  331  A    between atoms: C5'_839  and  C4'_840
REMARK  332  A    between atoms: C3'_842  and  O3'_843
REMARK  333  A    between atoms: O3'_843  and  P_855
REMARK  334  A    between atoms: C2'_844  and  O2'_845
REMARK  335  A    between atoms: C1'_846  and  N1_847
REMARK  336  A    between atoms: P_855  and  OP1_856
REMARK  337  A    between atoms: P_855  and  O5'_858
REMARK  338  A    between atoms: O5'_858  and  C5'_859
REMARK  339  A    between atoms: C5'_859  and  C4'_860
REMARK  340  A    between atoms: C3'_862  and  O3'_863
REMARK  341  A    between atoms: O3'_863  and  P_875
REMARK  342  A    between atoms: C2'_864  and  O2'_865
REMARK  343  A    between atoms: C1'_866  and  N1_867
REMARK  344  A    between atoms: P_875  and  OP1_876
REMARK  345  A    between atoms: P_875  and  O5'_878
REMARK  346  A    between atoms: O5'_878  and  C5'_879
REMARK  347  A    between atoms: C5'_879  and  C4'_880
REMARK  348  A    between atoms: C3'_882  and  O3'_883
REMARK  349  A    between atoms: O3'_883  and  P_897
REMARK  350  A    between atoms: C2'_884  and  O2'_885
REMARK  351  A    between atoms: C1'_886  and  N9_887
REMARK  352  A    between atoms: C6_891  and  N6_892
REMARK  353  A    between atoms: P_897  and  OP1_898
REMARK  354  A    between atoms: P_897  and  O5'_900
REMARK  355  A    between atoms: O5'_900  and  C5'_901
REMARK  356  A    between atoms: C5'_901  and  C4'_902
REMARK  357  A    between atoms: C3'_904  and  O3'_905
REMARK  358  A    between atoms: O3'_905  and  P_917
REMARK  359  A    between atoms: C2'_906  and  O2'_907
REMARK  360  A    between atoms: C1'_908  and  N1_909
REMARK  361  A    between atoms: P_917  and  OP2_919
REMARK  362  A    between atoms: P_917  and  O5'_920
REMARK  363  A    between atoms: O5'_920  and  C5'_921
REMARK  364  A    between atoms: C5'_921  and  C4'_922
REMARK  365  A    between atoms: C3'_924  and  O3'_925
REMARK  366  A    between atoms: O3'_925  and  P_937
REMARK  367  A    between atoms: C2'_926  and  O2'_927
REMARK  368  A    between atoms: C1'_928  and  N1_929
REMARK  369  A    between atoms: P_937  and  OP2_939
REMARK  370  A    between atoms: P_937  and  O5'_940
REMARK  371  A    between atoms: O5'_940  and  C5'_941
REMARK  372  A    between atoms: C5'_941  and  C4'_942
REMARK  373  A    between atoms: C3'_944  and  O3'_945
REMARK  374  A    between atoms: O3'_945  and  P_957
REMARK  375  A    between atoms: C2'_946  and  O2'_947
REMARK  376  A    between atoms: C1'_948  and  N1_949
REMARK  377  A    between atoms: P_957  and  OP2_959
REMARK  378  A    between atoms: P_957  and  O5'_960
REMARK  379  A    between atoms: O5'_960  and  C5'_961
REMARK  380  A    between atoms: C5'_961  and  C4'_962
REMARK  381  A    between atoms: C3'_964  and  O3'_965
REMARK  382  A    between atoms: O3'_965  and  P_977
REMARK  383  A    between atoms: C2'_966  and  O2'_967
REMARK  384  A    between atoms: C1'_968  and  N1_969
REMARK  385  A    between atoms: P_977  and  OP1_978
REMARK  386  A    between atoms: P_977  and  O5'_980
REMARK  387  A    between atoms: O5'_980  and  C5'_981
REMARK  388  A    between atoms: C5'_981  and  C4'_982
REMARK  389  A    between atoms: C3'_984  and  O3'_985
REMARK  390  A    between atoms: O3'_985  and  P_999
REMARK  391  A    between atoms: C2'_986  and  O2'_987
REMARK  392  A    between atoms: C1'_988  and  N9_989
REMARK  393  A    between atoms: C6_993  and  N6_994
REMARK  394  A    between atoms: P_999  and  OP1_1000
REMARK  395  A    between atoms: P_999  and  O5'_1002
REMARK  396  A    between atoms: O5'_1002  and  C5'_1003
REMARK  397  A    between atoms: C5'_1003  and  C4'_1004
REMARK  398  A    between atoms: C3'_1006  and  O3'_1007
REMARK  399  A    between atoms: O3'_1007  and  P_1019
REMARK  400  A    between atoms: C2'_1008  and  O2'_1009
REMARK  401  A    between atoms: C1'_1010  and  N1_1011
REMARK  402  A    between atoms: P_1019  and  OP1_1020
REMARK  403  A    between atoms: P_1019  and  O5'_1022
REMARK  404  A    between atoms: O5'_1022  and  C5'_1023
REMARK  405  A    between atoms: C5'_1023  and  C4'_1024
REMARK  406  A    between atoms: C3'_1026  and  O3'_1027
REMARK  407  A    between atoms: O3'_1027  and  P_1039
REMARK  408  A    between atoms: C2'_1028  and  O2'_1029
REMARK  409  A    between atoms: C1'_1030  and  N1_1031
REMARK  410  A    between atoms: P_1039  and  OP1_1040
REMARK  411  A    between atoms: P_1039  and  O5'_1042
REMARK  412  A    between atoms: O5'_1042  and  C5'_1043
REMARK  413  A    between atoms: C5'_1043  and  C4'_1044
REMARK  414  A    between atoms: C3'_1046  and  O3'_1047
REMARK  415  A    between atoms: O3'_1047  and  P_1059
REMARK  416  A    between atoms: C2'_1048  and  O2'_1049
REMARK  417  A    between atoms: C1'_1050  and  N1_1051
REMARK  418  A    between atoms: P_1059  and  OP1_1060
REMARK  419  A    between atoms: P_1059  and  O5'_1062
REMARK  420  A    between atoms: O5'_1062  and  C5'_1063
REMARK  421  A    between atoms: C5'_1063  and  C4'_1064
REMARK  422  A    between atoms: C3'_1066  and  O3'_1067
REMARK  423  A    between atoms: O3'_1067  and  P_1079
REMARK  424  A    between atoms: C2'_1068  and  O2'_1069
REMARK  425  A    between atoms: C1'_1070  and  N1_1071
REMARK  426  A    between atoms: P_1079  and  OP2_1081
REMARK  427  A    between atoms: P_1079  and  O5'_1082
REMARK  428  A    between atoms: O5'_1082  and  C5'_1083
REMARK  429  A    between atoms: C5'_1083  and  C4'_1084
REMARK  430  A    between atoms: C3'_1086  and  O3'_1087
REMARK  431  A    between atoms: O3'_1087  and  P_1101
REMARK  432  A    between atoms: C2'_1088  and  O2'_1089
REMARK  433  A    between atoms: C1'_1090  and  N9_1091
REMARK  434  A    between atoms: P_1101  and  OP2_1103
REMARK  435  A    between atoms: P_1101  and  O5'_1104
REMARK  436  A    between atoms: O5'_1104  and  C5'_1105
REMARK  437  A    between atoms: C5'_1105  and  C4'_1106
REMARK  438  A    between atoms: C3'_1108  and  O3'_1109
REMARK  439  A    between atoms: O3'_1109  and  P_1123
REMARK  440  A    between atoms: C2'_1110  and  O2'_1111
REMARK  441  A    between atoms: C1'_1112  and  N9_1113
REMARK  442  A    between atoms: P_1123  and  OP2_1125
REMARK  443  A    between atoms: P_1123  and  O5'_1126
REMARK  444  A    between atoms: O5'_1126  and  C5'_1127
REMARK  445  A    between atoms: C5'_1127  and  C4'_1128
REMARK  446  A    between atoms: C3'_1130  and  O3'_1131
REMARK  447  A    between atoms: O3'_1131  and  P_1145
REMARK  448  A    between atoms: C2'_1132  and  O2'_1133
REMARK  449  A    between atoms: C1'_1134  and  N9_1135
REMARK  450  A    between atoms: P_1145  and  OP2_1147
REMARK  451  A    between atoms: P_1145  and  O5'_1148
REMARK  452  A    between atoms: O5'_1148  and  C5'_1149
REMARK  453  A    between atoms: C5'_1149  and  C4'_1150
REMARK  454  A    between atoms: C3'_1152  and  O3'_1153
REMARK  455  A    between atoms: O3'_1153  and  P_1167
REMARK  456  A    between atoms: C2'_1154  and  O2'_1155
REMARK  457  A    between atoms: C1'_1156  and  N9_1157
REMARK  458  A    between atoms: P_1167  and  OP2_1169
REMARK  459  A    between atoms: P_1167  and  O5'_1170
REMARK  460  A    between atoms: O5'_1170  and  C5'_1171
REMARK  461  A    between atoms: C5'_1171  and  C4'_1172
REMARK  462  A    between atoms: C3'_1174  and  O3'_1175
REMARK  463  A    between atoms: O3'_1175  and  P_1189
REMARK  464  A    between atoms: C2'_1176  and  O2'_1177
REMARK  465  A    between atoms: C1'_1178  and  N9_1179
REMARK  466  A    between atoms: P_1189  and  OP2_1191
REMARK  467  A    between atoms: P_1189  and  O5'_1192
REMARK  468  A    between atoms: O5'_1192  and  C5'_1193
REMARK  469  A    between atoms: C5'_1193  and  C4'_1194
REMARK  470  A    between atoms: C3'_1196  and  O3'_1197
REMARK  471  A    between atoms: O3'_1197  and  P_1209
REMARK  472  A    between atoms: C2'_1198  and  O2'_1199
REMARK  473  A    between atoms: C1'_1200  and  N1_1201
REMARK  474  A    between atoms: P_1209  and  OP2_1211
REMARK  475  A    between atoms: P_1209  and  O5'_1212
REMARK  476  A    between atoms: O5'_1212  and  C5'_1213
REMARK  477  A    between atoms: C5'_1213  and  C4'_1214
REMARK  478  A    between atoms: C3'_1216  and  O3'_1217
REMARK  479  A    between atoms: O3'_1217  and  P_1231
REMARK  480  A    between atoms: C2'_1218  and  O2'_1219
REMARK  481  A    between atoms: C1'_1220  and  N9_1221
REMARK  482  A    between atoms: C6_1225  and  N6_1226
REMARK  483  A    between atoms: P_1231  and  OP1_1232
REMARK  484  A    between atoms: P_1231  and  O5'_1234
REMARK  485  A    between atoms: O5'_1234  and  C5'_1235
REMARK  486  A    between atoms: C5'_1235  and  C4'_1236
REMARK  487  A    between atoms: C3'_1238  and  O3'_1239
REMARK  488  A    between atoms: O3'_1239  and  P_1254
REMARK  489  A    between atoms: C2'_1240  and  O2'_1241
REMARK  490  A    between atoms: C1'_1242  and  N9_1243
REMARK  491  A    between atoms: P_1254  and  OP1_1255
REMARK  492  A    between atoms: P_1254  and  O5'_1257
REMARK  493  A    between atoms: O5'_1257  and  C5'_1258
REMARK  494  A    between atoms: C5'_1258  and  C4'_1259
REMARK  495  A    between atoms: C3'_1261  and  O3'_1262
REMARK  496  A    between atoms: O3'_1262  and  P_1276
REMARK  497  A    between atoms: C2'_1263  and  O2'_1264
REMARK  498  A    between atoms: C1'_1265  and  N9_1266
REMARK  499  A    between atoms: C6_1270  and  N6_1271
REMARK  500  A    between atoms: P_1276  and  OP1_1277
REMARK  501  A    between atoms: P_1276  and  O5'_1279
REMARK  502  A    between atoms: O5'_1279  and  C5'_1280
REMARK  503  A    between atoms: C5'_1280  and  C4'_1281
REMARK  504  A    between atoms: C3'_1283  and  O3'_1284
REMARK  505  A    between atoms: O3'_1284  and  P_1296
REMARK  506  A    between atoms: C2'_1285  and  O2'_1286
REMARK  507  A    between atoms: C1'_1287  and  N1_1288
REMARK  508  A    between atoms: P_1296  and  OP1_1297
REMARK  509  A    between atoms: P_1296  and  O5'_1299
REMARK  510  A    between atoms: O5'_1299  and  C5'_1300
REMARK  511  A    between atoms: C5'_1300  and  C4'_1301
REMARK  512  A    between atoms: C3'_1303  and  O3'_1304
REMARK  513  A    between atoms: O3'_1304  and  P_1316
REMARK  514  A    between atoms: C2'_1305  and  O2'_1306
REMARK  515  A    between atoms: C1'_1307  and  N1_1308
REMARK  516  A    between atoms: P_1316  and  OP1_1317
REMARK  517  A    between atoms: P_1316  and  O5'_1319
REMARK  518  A    between atoms: O5'_1319  and  C5'_1320
REMARK  519  A    between atoms: C5'_1320  and  C4'_1321
REMARK  520  A    between atoms: C3'_1323  and  O3'_1324
REMARK  521  A    between atoms: O3'_1324  and  P_1338
REMARK  522  A    between atoms: C2'_1325  and  O2'_1326
REMARK  523  A    between atoms: C1'_1327  and  N9_1328
REMARK  524  A    between atoms: C6_1332  and  N6_1333
REMARK  525  A    between atoms: P_1338  and  OP1_1339
REMARK  526  A    between atoms: P_1338  and  O5'_1341
REMARK  527  A    between atoms: O5'_1341  and  C5'_1342
REMARK  528  A    between atoms: C5'_1342  and  C4'_1343
REMARK  529  A    between atoms: C3'_1345  and  O3'_1346
REMARK  530  A    between atoms: O3'_1346  and  P_1358
REMARK  531  A    between atoms: C2'_1347  and  O2'_1348
REMARK  532  A    between atoms: C1'_1349  and  N1_1350
REMARK  533  A    between atoms: P_1358  and  OP1_1359
REMARK  534  A    between atoms: P_1358  and  O5'_1361
REMARK  535  A    between atoms: O5'_1361  and  C5'_1362
REMARK  536  A    between atoms: C5'_1362  and  C4'_1363
REMARK  537  A    between atoms: C3'_1365  and  O3'_1366
REMARK  538  A    between atoms: O3'_1366  and  P_1380
REMARK  539  A    between atoms: C2'_1367  and  O2'_1368
REMARK  540  A    between atoms: C1'_1369  and  N9_1370
REMARK  541  A    between atoms: C6_1374  and  N6_1375
REMARK  542  A    between atoms: P_1380  and  OP2_1382
REMARK  543  A    between atoms: P_1380  and  O5'_1383
REMARK  544  A    between atoms: O5'_1383  and  C5'_1384
REMARK  545  A    between atoms: C5'_1384  and  C4'_1385
REMARK  546  A    between atoms: C3'_1387  and  O3'_1388
REMARK  547  A    between atoms: O3'_1388  and  P_1402
REMARK  548  A    between atoms: C2'_1389  and  O2'_1390
REMARK  549  A    between atoms: C1'_1391  and  N9_1392
REMARK  550  A    between atoms: P_1402  and  OP2_1404
REMARK  551  A    between atoms: P_1402  and  O5'_1405
REMARK  552  A    between atoms: O5'_1405  and  C5'_1406
REMARK  553  A    between atoms: C5'_1406  and  C4'_1407
REMARK  554  A    between atoms: C3'_1409  and  O3'_1410
REMARK  555  A    between atoms: O3'_1410  and  P_1424
REMARK  556  A    between atoms: C2'_1411  and  O2'_1412
REMARK  557  A    between atoms: C1'_1413  and  N9_1414
REMARK  558  A    between atoms: P_1424  and  OP2_1426
REMARK  559  A    between atoms: P_1424  and  O5'_1427
REMARK  560  A    between atoms: O5'_1427  and  C5'_1428
REMARK  561  A    between atoms: C5'_1428  and  C4'_1429
REMARK  562  A    between atoms: C3'_1431  and  O3'_1432
REMARK  563  A    between atoms: O3'_1432  and  P_1446
REMARK  564  A    between atoms: C2'_1433  and  O2'_1434
REMARK  565  A    between atoms: C1'_1435  and  N9_1436
REMARK  566  A    between atoms: P_1446  and  OP1_1447
REMARK  567  A    between atoms: P_1446  and  O5'_1449
REMARK  568  A    between atoms: O5'_1449  and  C5'_1450
REMARK  569  A    between atoms: C5'_1450  and  C4'_1451
REMARK  570  A    between atoms: C3'_1453  and  O3'_1454
REMARK  571  A    between atoms: O3'_1454  and  P_1468
REMARK  572  A    between atoms: C2'_1455  and  O2'_1456
REMARK  573  A    between atoms: C1'_1457  and  N9_1458
REMARK  574  A    between atoms: C6_1462  and  N6_1463
REMARK  575  A    between atoms: P_1468  and  OP1_1469
REMARK  576  A    between atoms: P_1468  and  O5'_1471
REMARK  577  A    between atoms: O5'_1471  and  C5'_1472
REMARK  578  A    between atoms: C5'_1472  and  C4'_1473
REMARK  579  A    between atoms: C3'_1475  and  O3'_1476
REMARK  580  A    between atoms: O3'_1476  and  P_1488
REMARK  581  A    between atoms: C2'_1477  and  O2'_1478
REMARK  582  A    between atoms: C1'_1479  and  N1_1480
REMARK  583  A    between atoms: P_1488  and  OP1_1489
REMARK  584  A    between atoms: P_1488  and  O5'_1491
REMARK  585  A    between atoms: O5'_1491  and  C5'_1492
REMARK  586  A    between atoms: C5'_1492  and  C4'_1493
REMARK  587  A    between atoms: C3'_1495  and  O3'_1496
REMARK  588  A    between atoms: O3'_1496  and  P_1508
REMARK  589  A    between atoms: C2'_1497  and  O2'_1498
REMARK  590  A    between atoms: C1'_1499  and  N1_1500
REMARK  591  A    between atoms: P_1508  and  OP2_1510
REMARK  592  A    between atoms: P_1508  and  O5'_1511
REMARK  593  A    between atoms: O5'_1511  and  C5'_1512
REMARK  594  A    between atoms: C5'_1512  and  C4'_1513
REMARK  595  A    between atoms: C3'_1515  and  O3'_1516
REMARK  596  A    between atoms: O3'_1516  and  P_1528
REMARK  597  A    between atoms: C2'_1517  and  O2'_1518
REMARK  598  A    between atoms: C1'_1519  and  N1_1520
REMARK  599  A    between atoms: P_1528  and  OP2_1530
REMARK  600  A    between atoms: P_1528  and  O5'_1531
REMARK  601  A    between atoms: O5'_1531  and  C5'_1532
REMARK  602  A    between atoms: C5'_1532  and  C4'_1533
REMARK  603  A    between atoms: C3'_1535  and  O3'_1536
REMARK  604  A    between atoms: O3'_1536  and  P_1548
REMARK  605  A    between atoms: C2'_1537  and  O2'_1538
REMARK  606  A    between atoms: C1'_1539  and  N1_1540
REMARK  607  A    between atoms: P_1548  and  OP2_1550
REMARK  608  A    between atoms: P_1548  and  O5'_1551
REMARK  609  A    between atoms: O5'_1551  and  C5'_1552
REMARK  610  A    between atoms: C5'_1552  and  C4'_1553
REMARK  611  A    between atoms: C3'_1555  and  O3'_1556
REMARK  612  A    between atoms: O3'_1556  and  P_1568
REMARK  613  A    between atoms: C2'_1557  and  O2'_1558
REMARK  614  A    between atoms: C1'_1559  and  N1_1560
REMARK  615  A    between atoms: P_1568  and  OP1_1569
REMARK  616  A    between atoms: P_1568  and  O5'_1571
REMARK  617  A    between atoms: O5'_1571  and  C5'_1572
REMARK  618  A    between atoms: C5'_1572  and  C4'_1573
REMARK  619  A    between atoms: C3'_1575  and  O3'_1576
REMARK  620  A    between atoms: C2'_1577  and  O2'_1578
REMARK  621  A    between atoms: C1'_1579  and  N9_1580
REMARK                            x       y       z     vdW  Elec       q    Type
REMARK                         _______ _______ _______ _____ _____    ______ ____
ROOT
ATOM      1  P   U   B  39       2.018 -46.258   8.702  0.00  0.00    +0.000 P 
ATOM      2  OP1 U   B  39       1.255 -46.999   7.672  0.00  0.00    +0.000 OA
ENDROOT
BRANCH   1   3
ATOM      3  OP2 U   B  39       1.331 -45.747   9.904  0.00  0.00    +0.000 OA
ATOM      4  H   U   B  39       0.590 -45.181   9.637  0.00  0.00    +0.000 HD
ENDBRANCH   1   3
BRANCH   1   5
ATOM      5  O5' U   B  39       3.221 -47.177   9.181  0.00  0.00    +0.000 OA
BRANCH   5   6
ATOM      6  C5' U   B  39       4.174 -47.679   8.262  0.00  0.00    +0.000 C 
BRANCH   6   7
ATOM      7  C4' U   B  39       5.337 -48.334   8.970  0.00  0.00    +0.000 C 
ATOM      8  O4' U   B  39       5.884 -47.442   9.963  0.00  0.00    +0.000 OA
ATOM      9  C3' U   B  39       5.022 -49.603   9.736  0.00  0.00    +0.000 C 
ATOM     10  C2' U   B  39       6.155 -49.667  10.769  0.00  0.00    +0.000 C 
ATOM     11  C1' U   B  39       6.492 -48.192  10.972  0.00  0.00    +0.000 C 
BRANCH  11  12
ATOM     12  N1  U   B  39       6.123 -47.666  12.308  0.00  0.00    +0.000 N 
ATOM     13  C2  U   B  39       4.829 -47.714  12.769  0.00  0.00    +0.000 A 
ATOM     14  O2  U   B  39       3.894 -48.163  12.138  0.00  0.00    +0.000 OA
ATOM     15  N3  U   B  39       4.635 -47.181  14.020  0.00  0.00    +0.000 N 
ATOM     16  C4  U   B  39       5.588 -46.618  14.843  0.00  0.00    +0.000 A 
ATOM     17  O4  U   B  39       5.253 -46.188  15.954  0.00  0.00    +0.000 OA
ATOM     18  C5  U   B  39       6.899 -46.597  14.294  0.00  0.00    +0.000 A 
ATOM     19  C6  U   B  39       7.122 -47.106  13.076  0.00  0.00    +0.000 A 
ATOM     20  H   U   B  39       3.714 -47.203  14.368  0.00  0.00    +0.000 HD
ENDBRANCH  11  12
BRANCH  10  21
ATOM     21  O2' U   B  39       7.281 -50.341  10.256  0.00  0.00    +0.000 OA
ATOM     22  H   U   B  39       7.575 -49.905   9.441  0.00  0.00    +0.000 HD
ENDBRANCH  10  21
BRANCH   9  23
ATOM     23  O3' U   B  39       4.974 -50.734   8.887  0.00  0.00    +0.000 OA
BRANCH  23  24
ATOM     24  P   C   B  40       3.631 -51.369   8.456  0.00  0.00    +0.000 P 
ATOM     25  OP1 C   B  40       3.788 -51.830   7.065  0.00  0.00    +0.000 OA
BRANCH  24  26
ATOM     26  OP2 C   B  40       2.504 -50.460   8.812  0.00  0.00    +0.000 OA
ATOM     27  H   C   B  40       2.538 -49.668   8.253  0.00  0.00    +0.000 HD
ENDBRANCH  24  26
BRANCH  24  28
ATOM     28  O5' C   B  40       3.535 -52.646   9.393  0.00  0.00    +0.000 OA
BRANCH  28  29
ATOM     29  C5' C   B  40       4.581 -53.582   9.409  0.00  0.00    +0.000 C 
BRANCH  29  30
ATOM     30  C4' C   B  40       4.227 -54.815  10.202  0.00  0.00    +0.000 C 
ATOM     31  O4' C   B  40       4.381 -54.525  11.619  0.00  0.00    +0.000 OA
ATOM     32  C3' C   B  40       2.790 -55.308   9.998  0.00  0.00    +0.000 C 
ATOM     33  C2' C   B  40       2.081 -54.913  11.283  0.00  0.00    +0.000 C 
ATOM     34  C1' C   B  40       3.199 -54.847  12.318  0.00  0.00    +0.000 C 
BRANCH  34  35
ATOM     35  N1  C   B  40       2.974 -53.805  13.345  0.00  0.00    +0.000 N 
ATOM     36  C2  C   B  40       3.325 -54.062  14.670  0.00  0.00    +0.000 A 
ATOM     37  O2  C   B  40       3.832 -55.157  14.962  0.00  0.00    +0.000 OA
ATOM     38  N3  C   B  40       3.113 -53.097  15.605  0.00  0.00    +0.000 NA
ATOM     39  C4  C   B  40       2.573 -51.927  15.257  0.00  0.00    +0.000 A 
ATOM     40  N4  C   B  40       2.389 -51.019  16.210  0.00  0.00    +0.000 N 
ATOM     41  C5  C   B  40       2.203 -51.645  13.917  0.00  0.00    +0.000 A 
ATOM     42  C6  C   B  40       2.418 -52.600  13.001  0.00  0.00    +0.000 A 
ATOM     43  H   C   B  40       1.993 -50.145  15.988  0.00  0.00    +0.000 HD
ATOM     44  H   C   B  40       2.649 -51.220  17.138  0.00  0.00    +0.000 HD
ENDBRANCH  34  35
BRANCH  33  45
ATOM     45  O2' C   B  40       1.078 -55.826  11.695  0.00  0.00    +0.000 OA
ATOM     46  H   C   B  40       1.475 -56.699  11.839  0.00  0.00    +0.000 HD
ENDBRANCH  33  45
BRANCH  32  47
ATOM     47  O3' C   B  40       2.757 -56.715   9.820  0.00  0.00    +0.000 OA
BRANCH  47  48
ATOM     48  P   U   B  41       2.427 -57.233   8.420  0.00  0.00    +0.000 P 
ATOM     49  OP1 U   B  41       1.465 -56.318   7.745  0.00  0.00    +0.000 OA
BRANCH  48  50
ATOM     50  OP2 U   B  41       2.134 -58.678   8.458  0.00  0.00    +0.000 OA
ATOM     51  H   U   B  41       1.927 -58.990   7.563  0.00  0.00    +0.000 HD
ENDBRANCH  48  50
BRANCH  48  52
ATOM     52  O5' U   B  41       3.860 -57.014   7.768  0.00  0.00    +0.000 OA
BRANCH  52  53
ATOM     53  C5' U   B  41       4.000 -56.733   6.397  0.00  0.00    +0.000 C 
BRANCH  53  54
ATOM     54  C4' U   B  41       5.361 -57.131   5.894  0.00  0.00    +0.000 C 
ATOM     55  O4' U   B  41       5.615 -58.527   6.176  0.00  0.00    +0.000 OA
ATOM     56  C3' U   B  41       5.563 -57.011   4.402  0.00  0.00    +0.000 C 
ATOM     57  C2' U   B  41       6.670 -58.005   4.121  0.00  0.00    +0.000 C 
ATOM     58  C1' U   B  41       6.421 -59.080   5.180  0.00  0.00    +0.000 C 
BRANCH  58  59
ATOM     59  N1  U   B  41       5.763 -60.284   4.632  0.00  0.00    +0.000 N 
ATOM     60  C2  U   B  41       4.388 -60.319   4.501  0.00  0.00    +0.000 A 
ATOM     61  O2  U   B  41       3.637 -59.414   4.811  0.00  0.00    +0.000 OA
ATOM     62  N3  U   B  41       3.890 -61.484   3.981  0.00  0.00    +0.000 N 
ATOM     63  C4  U   B  41       4.600 -62.598   3.597  0.00  0.00    +0.000 A 
ATOM     64  O4  U   B  41       3.996 -63.573   3.150  0.00  0.00    +0.000 OA
ATOM     65  C5  U   B  41       6.005 -62.490   3.767  0.00  0.00    +0.000 A 
ATOM     66  C6  U   B  41       6.525 -61.367   4.275  0.00  0.00    +0.000 A 
ATOM     67  H   U   B  41       2.913 -61.529   3.869  0.00  0.00    +0.000 HD
ENDBRANCH  58  59
BRANCH  57  68
ATOM     68  O2' U   B  41       7.940 -57.439   4.345  0.00  0.00    +0.000 OA
ATOM     69  H   U   B  41       7.991 -57.110   5.256  0.00  0.00    +0.000 HD
ENDBRANCH  57  68
BRANCH  56  70
ATOM     70  O3' U   B  41       5.880 -55.697   4.019  0.00  0.00    +0.000 OA
BRANCH  70  71
ATOM     71  P   U   B  42       5.383 -55.096   2.672  0.00  0.00    +0.000 P 
ATOM     72  OP2 U   B  42       5.280 -56.161   1.667  0.00  0.00    +0.000 OA
BRANCH  71  73
ATOM     73  OP1 U   B  42       4.231 -54.223   2.944  0.00  0.00    +0.000 OA
ATOM     74  H   U   B  42       3.911 -53.841   2.112  0.00  0.00    +0.000 HD
ENDBRANCH  71  73
BRANCH  71  75
ATOM     75  O5' U   B  42       6.630 -54.160   2.301  0.00  0.00    +0.000 OA
BRANCH  75  76
ATOM     76  C5' U   B  42       7.499 -53.706   3.320  0.00  0.00    +0.000 C 
BRANCH  76  77
ATOM     77  C4' U   B  42       8.724 -53.064   2.725  0.00  0.00    +0.000 C 
ATOM     78  O4' U   B  42       9.420 -54.033   1.912  0.00  0.00    +0.000 OA
ATOM     79  C3' U   B  42       8.442 -51.856   1.834  0.00  0.00    +0.000 C 
ATOM     80  C2' U   B  42       9.069 -52.171   0.483  0.00  0.00    +0.000 C 
ATOM     81  C1' U   B  42       9.909 -53.426   0.749  0.00  0.00    +0.000 C 
BRANCH  81  82
ATOM     82  N1  U   B  42       9.844 -54.398  -0.348  0.00  0.00    +0.000 N 
ATOM     83  C2  U   B  42      10.996 -54.637  -1.072  0.00  0.00    +0.000 A 
ATOM     84  O2  U   B  42      12.062 -54.088  -0.826  0.00  0.00    +0.000 OA
ATOM     85  N3  U   B  42      10.862 -55.547  -2.088  0.00  0.00    +0.000 N 
ATOM     86  C4  U   B  42       9.715 -56.223  -2.452  0.00  0.00    +0.000 A 
ATOM     87  O4  U   B  42       9.754 -57.003  -3.389  0.00  0.00    +0.000 OA
ATOM     88  C5  U   B  42       8.566 -55.915  -1.664  0.00  0.00    +0.000 A 
ATOM     89  C6  U   B  42       8.664 -55.032  -0.661  0.00  0.00    +0.000 A 
ATOM     90  H   U   B  42      11.671 -55.739  -2.615  0.00  0.00    +0.000 HD
ENDBRANCH  81  82
BRANCH  80  91
ATOM     91  O2' U   B  42       9.874 -51.148  -0.043  0.00  0.00    +0.000 OA
ATOM     92  H   U   B  42      10.604 -50.964   0.569  0.00  0.00    +0.000 HD
ENDBRANCH  80  91
BRANCH  79  93
ATOM     93  O3' U   B  42       9.005 -50.677   2.392  0.00  0.00    +0.000 OA
BRANCH  93  94
ATOM     94  P   A   B  43       8.239 -49.386   2.628  0.00  0.00    +0.000 P 
ATOM     95  OP2 A   B  43       7.253 -49.182   1.542  0.00  0.00    +0.000 OA
BRANCH  94  96
ATOM     96  OP1 A   B  43       7.779 -49.382   4.029  0.00  0.00    +0.000 OA
ATOM     97  H   A   B  43       7.094 -50.058   4.146  0.00  0.00    +0.000 HD
ENDBRANCH  94  96
BRANCH  94  98
ATOM     98  O5' A   B  43       9.363 -48.267   2.465  0.00  0.00    +0.000 OA
BRANCH  98  99
ATOM     99  C5' A   B  43      10.179 -47.893   3.556  0.00  0.00    +0.000 C 
BRANCH  99 100
ATOM    100  C4' A   B  43      11.463 -47.230   3.111  0.00  0.00    +0.000 C 
ATOM    101  O4' A   B  43      12.455 -48.243   2.774  0.00  0.00    +0.000 OA
ATOM    102  C3' A   B  43      11.360 -46.328   1.877  0.00  0.00    +0.000 C 
ATOM    103  C2' A   B  43      11.910 -47.196   0.763  0.00  0.00    +0.000 C 
ATOM    104  C1' A   B  43      12.990 -47.969   1.503  0.00  0.00    +0.000 C 
BRANCH 104 105
ATOM    105  N9  A   B  43      13.387 -49.217   0.850  0.00  0.00    +0.000 N 
ATOM    106  C8  A   B  43      13.124 -49.625  -0.436  0.00  0.00    +0.000 A 
ATOM    107  N7  A   B  43      13.630 -50.794  -0.749  0.00  0.00    +0.000 NA
ATOM    108  C5  A   B  43      14.279 -51.176   0.410  0.00  0.00    +0.000 A 
ATOM    109  C6  A   B  43      15.020 -52.320   0.736  0.00  0.00    +0.000 A 
ATOM    110  N1  A   B  43      15.544 -52.405   1.977  0.00  0.00    +0.000 NA
ATOM    111  C2  A   B  43      15.333 -51.395   2.830  0.00  0.00    +0.000 A 
ATOM    112  N3  A   B  43      14.655 -50.260   2.642  0.00  0.00    +0.000 NA
ATOM    113  C4  A   B  43      14.145 -50.216   1.393  0.00  0.00    +0.000 A 
BRANCH 109 114
ATOM    114  N6  A   B  43      15.233 -53.335  -0.116  0.00  0.00    +0.000 N 
ATOM    115  H   A   B  43      14.862 -53.299  -1.027  0.00  0.00    +0.000 HD
ATOM    116  H   A   B  43      15.760 -54.116   0.170  0.00  0.00    +0.000 HD
ENDBRANCH 109 114
ENDBRANCH 104 105
BRANCH 103 117
ATOM    117  O2' A   B  43      12.448 -46.456  -0.339  0.00  0.00    +0.000 OA
ATOM    118  H   A   B  43      13.150 -45.866  -0.021  0.00  0.00    +0.000 HD
ENDBRANCH 103 117
BRANCH 102 119
ATOM    119  O3' A   B  43      12.209 -45.200   2.057  0.00  0.00    +0.000 OA
BRANCH 119 120
ATOM    120  P   C   B  44      11.864 -43.821   1.450  0.00  0.00    +0.000 P 
ATOM    121  OP2 C   B  44      13.023 -43.450   0.608  0.00  0.00    +0.000 OA
BRANCH 120 122
ATOM    122  OP1 C   B  44      10.512 -43.857   0.859  0.00  0.00    +0.000 OA
ATOM    123  H   C   B  44      10.512 -44.446   0.088  0.00  0.00    +0.000 HD
ENDBRANCH 120 122
BRANCH 120 124
ATOM    124  O5' C   B  44      11.847 -42.854   2.708  0.00  0.00    +0.000 OA
BRANCH 124 125
ATOM    125  C5' C   B  44      10.676 -42.690   3.477  0.00  0.00    +0.000 C 
BRANCH 125 126
ATOM    126  C4' C   B  44      10.844 -41.608   4.509  0.00  0.00    +0.000 C 
ATOM    127  O4' C   B  44      11.500 -42.159   5.689  0.00  0.00    +0.000 OA
ATOM    128  C3' C   B  44      11.693 -40.417   4.067  0.00  0.00    +0.000 C 
ATOM    129  C2' C   B  44      13.040 -40.701   4.713  0.00  0.00    +0.000 C 
ATOM    130  C1' C   B  44      12.628 -41.376   6.014  0.00  0.00    +0.000 C 
BRANCH 130 131
ATOM    131  N1  C   B  44      13.672 -42.247   6.591  0.00  0.00    +0.000 N 
ATOM    132  C2  C   B  44      13.975 -42.119   7.953  0.00  0.00    +0.000 A 
ATOM    133  O2  C   B  44      13.349 -41.300   8.644  0.00  0.00    +0.000 OA
ATOM    134  N3  C   B  44      14.941 -42.913   8.487  0.00  0.00    +0.000 NA
ATOM    135  C4  C   B  44      15.589 -43.793   7.720  0.00  0.00    +0.000 A 
ATOM    136  N4  C   B  44      16.522 -44.548   8.295  0.00  0.00    +0.000 N 
ATOM    137  C5  C   B  44      15.302 -43.932   6.330  0.00  0.00    +0.000 A 
ATOM    138  C6  C   B  44      14.346 -43.146   5.811  0.00  0.00    +0.000 A 
ATOM    139  H   C   B  44      17.020 -45.208   7.760  0.00  0.00    +0.000 HD
ATOM    140  H   C   B  44      16.714 -44.447   9.255  0.00  0.00    +0.000 HD
ENDBRANCH 130 131
BRANCH 129 141
ATOM    141  O2' C   B  44      13.835 -39.551   4.956  0.00  0.00    +0.000 OA
ATOM    142  H   C   B  44      13.351 -38.940   5.533  0.00  0.00    +0.000 HD
ENDBRANCH 129 141
BRANCH 128 143
ATOM    143  O3' C   B  44      11.158 -39.207   4.594  0.00  0.00    +0.000 OA
BRANCH 143 144
ATOM    144  P   U   B  45      11.552 -37.821   3.870  0.00  0.00    +0.000 P 
ATOM    145  OP1 U   B  45      11.740 -38.076   2.422  0.00  0.00    +0.000 OA
BRANCH 144 146
ATOM    146  OP2 U   B  45      12.638 -37.194   4.654  0.00  0.00    +0.000 OA
ATOM    147  H   U   B  45      12.894 -36.356   4.238  0.00  0.00    +0.000 HD
ENDBRANCH 144 146
BRANCH 144 148
ATOM    148  O5' U   B  45      10.235 -36.949   4.054  0.00  0.00    +0.000 OA
BRANCH 148 149
ATOM    149  C5' U   B  45       9.043 -37.257   3.348  0.00  0.00    +0.000 C 
BRANCH 149 150
ATOM    150  C4' U   B  45       7.832 -36.722   4.068  0.00  0.00    +0.000 C 
ATOM    151  O4' U   B  45       7.520 -37.569   5.204  0.00  0.00    +0.000 OA
ATOM    152  C3' U   B  45       7.988 -35.339   4.669  0.00  0.00    +0.000 C 
ATOM    153  C2' U   B  45       6.947 -35.333   5.779  0.00  0.00    +0.000 C 
ATOM    154  C1' U   B  45       7.036 -36.783   6.276  0.00  0.00    +0.000 C 
BRANCH 154 155
ATOM    155  N1  U   B  45       7.965 -36.929   7.422  0.00  0.00    +0.000 N 
ATOM    156  C2  U   B  45       7.550 -36.456   8.657  0.00  0.00    +0.000 A 
ATOM    157  O2  U   B  45       6.471 -35.920   8.841  0.00  0.00    +0.000 OA
ATOM    158  N3  U   B  45       8.450 -36.635   9.682  0.00  0.00    +0.000 N 
ATOM    159  C4  U   B  45       9.696 -37.222   9.596  0.00  0.00    +0.000 A 
ATOM    160  O4  U   B  45      10.392 -37.310  10.612  0.00  0.00    +0.000 OA
ATOM    161  C5  U   B  45      10.056 -37.685   8.285  0.00  0.00    +0.000 A 
ATOM    162  C6  U   B  45       9.194 -37.528   7.269  0.00  0.00    +0.000 A 
ATOM    163  H   U   B  45       8.176 -36.310  10.570  0.00  0.00    +0.000 HD
ENDBRANCH 154 155
BRANCH 153 164
ATOM    164  O2' U   B  45       5.647 -35.107   5.270  0.00  0.00    +0.000 OA
ATOM    165  H   U   B  45       5.444 -35.773   4.595  0.00  0.00    +0.000 HD
ENDBRANCH 153 164
BRANCH 152 166
ATOM    166  O3' U   B  45       7.810 -34.300   3.722  0.00  0.00    +0.000 OA
BRANCH 166 167
ATOM    167  P   U   B  46       8.770 -32.999   3.747  0.00  0.00    +0.000 P 
ATOM    168  OP1 U   B  46       8.412 -32.138   2.590  0.00  0.00    +0.000 OA
BRANCH 167 169
ATOM    169  OP2 U   B  46      10.166 -33.466   3.918  0.00  0.00    +0.000 OA
ATOM    170  H   U   B  46      10.452 -33.929   3.116  0.00  0.00    +0.000 HD
ENDBRANCH 167 169
BRANCH 167 171
ATOM    171  O5' U   B  46       8.328 -32.244   5.076  0.00  0.00    +0.000 OA
BRANCH 171 172
ATOM    172  C5' U   B  46       7.013 -31.731   5.219  0.00  0.00    +0.000 C 
BRANCH 172 173
ATOM    173  C4' U   B  46       6.716 -31.359   6.649  0.00  0.00    +0.000 C 
ATOM    174  O4' U   B  46       6.791 -32.540   7.494  0.00  0.00    +0.000 OA
ATOM    175  C3' U   B  46       7.680 -30.385   7.297  0.00  0.00    +0.000 C 
ATOM    176  C2' U   B  46       7.472 -30.662   8.781  0.00  0.00    +0.000 C 
ATOM    177  C1' U   B  46       7.278 -32.183   8.771  0.00  0.00    +0.000 C 
BRANCH 177 178
ATOM    178  N1  U   B  46       8.548 -32.902   9.015  0.00  0.00    +0.000 N 
ATOM    179  C2  U   B  46       8.975 -33.010  10.332  0.00  0.00    +0.000 A 
ATOM    180  O2  U   B  46       8.350 -32.545  11.270  0.00  0.00    +0.000 OA
ATOM    181  N3  U   B  46      10.158 -33.687  10.511  0.00  0.00    +0.000 N 
ATOM    182  C4  U   B  46      10.945 -34.247   9.528  0.00  0.00    +0.000 A 
ATOM    183  O4  U   B  46      11.990 -34.825   9.846  0.00  0.00    +0.000 OA
ATOM    184  C5  U   B  46      10.441 -34.090   8.195  0.00  0.00    +0.000 A 
ATOM    185  C6  U   B  46       9.291 -33.440   7.992  0.00  0.00    +0.000 A 
ATOM    186  H   U   B  46      10.476 -33.782  11.438  0.00  0.00    +0.000 HD
ENDBRANCH 177 178
BRANCH 176 187
ATOM    187  O2' U   B  46       6.282 -30.058   9.259  0.00  0.00    +0.000 OA
ATOM    188  H   U   B  46       5.529 -30.363   8.729  0.00  0.00    +0.000 HD
ENDBRANCH 176 187
BRANCH 175 189
ATOM    189  O3' U   B  46       7.431 -29.034   6.936  0.00  0.00    +0.000 OA
BRANCH 189 190
ATOM    190  P   U   B  47       8.622 -27.967   6.968  0.00  0.00    +0.000 P 
ATOM    191  OP1 U   B  47       8.122 -26.716   6.343  0.00  0.00    +0.000 OA
BRANCH 190 192
ATOM    192  OP2 U   B  47       9.847 -28.619   6.438  0.00  0.00    +0.000 OA
ATOM    193  H   U   B  47       9.735 -28.796   5.491  0.00  0.00    +0.000 HD
ENDBRANCH 190 192
BRANCH 190 194
ATOM    194  O5' U   B  47       8.839 -27.691   8.524  0.00  0.00    +0.000 OA
BRANCH 194 195
ATOM    195  C5' U   B  47       7.810 -27.114   9.311  0.00  0.00    +0.000 C 
BRANCH 195 196
ATOM    196  C4' U   B  47       8.155 -27.135  10.782  0.00  0.00    +0.000 C 
ATOM    197  O4' U   B  47       8.296 -28.505  11.242  0.00  0.00    +0.000 OA
ATOM    198  C3' U   B  47       9.470 -26.483  11.164  0.00  0.00    +0.000 C 
ATOM    199  C2' U   B  47       9.777 -27.136  12.505  0.00  0.00    +0.000 C 
ATOM    200  C1' U   B  47       9.277 -28.567  12.257  0.00  0.00    +0.000 C 
BRANCH 200 201
ATOM    201  N1  U   B  47      10.365 -29.465  11.813  0.00  0.00    +0.000 N 
ATOM    202  C2  U   B  47      11.193 -29.991  12.796  0.00  0.00    +0.000 A 
ATOM    203  O2  U   B  47      11.057 -29.743  13.982  0.00  0.00    +0.000 OA
ATOM    204  N3  U   B  47      12.188 -30.821  12.337  0.00  0.00    +0.000 N 
ATOM    205  C4  U   B  47      12.436 -31.165  11.024  0.00  0.00    +0.000 A 
ATOM    206  O4  U   B  47      13.374 -31.924  10.763  0.00  0.00    +0.000 OA
ATOM    207  C5  U   B  47      11.543 -30.577  10.071  0.00  0.00    +0.000 A 
ATOM    208  C6  U   B  47      10.565 -29.769  10.489  0.00  0.00    +0.000 A 
ATOM    209  H   U   B  47      12.786 -31.210  13.016  0.00  0.00    +0.000 HD
ENDBRANCH 200 201
BRANCH 199 210
ATOM    210  O2' U   B  47       9.008 -26.562  13.549  0.00  0.00    +0.000 OA
ATOM    211  H   U   B  47       8.066 -26.624  13.328  0.00  0.00    +0.000 HD
ENDBRANCH 199 210
BRANCH 198 212
ATOM    212  O3' U   B  47       9.382 -25.066  11.236  0.00  0.00    +0.000 OA
BRANCH 212 213
ATOM    213  P   A   B  48      10.668 -24.159  10.935  0.00  0.00    +0.000 P 
ATOM    214  OP2 A   B  48      11.385 -24.753   9.780  0.00  0.00    +0.000 OA
BRANCH 213 215
ATOM    215  OP1 A   B  48      10.232 -22.741  10.883  0.00  0.00    +0.000 OA
ATOM    216  H   A   B  48       9.680 -22.601  10.098  0.00  0.00    +0.000 HD
ENDBRANCH 213 215
BRANCH 213 217
ATOM    217  O5' A   B  48      11.571 -24.352  12.235  0.00  0.00    +0.000 OA
BRANCH 217 218
ATOM    218  C5' A   B  48      11.129 -23.892  13.503  0.00  0.00    +0.000 C 
BRANCH 218 219
ATOM    219  C4' A   B  48      12.038 -24.372  14.613  0.00  0.00    +0.000 C 
ATOM    220  O4' A   B  48      11.996 -25.818  14.697  0.00  0.00    +0.000 OA
ATOM    221  C3' A   B  48      13.515 -24.057  14.440  0.00  0.00    +0.000 C 
ATOM    222  C2' A   B  48      14.172 -25.106  15.324  0.00  0.00    +0.000 C 
ATOM    223  C1' A   B  48      13.261 -26.312  15.083  0.00  0.00    +0.000 C 
BRANCH 223 224
ATOM    224  N9  A   B  48      13.771 -27.189  14.014  0.00  0.00    +0.000 N 
ATOM    225  C8  A   B  48      13.381 -27.233  12.699  0.00  0.00    +0.000 A 
ATOM    226  N7  A   B  48      14.026 -28.131  11.990  0.00  0.00    +0.000 NA
ATOM    227  C5  A   B  48      14.898 -28.715  12.897  0.00  0.00    +0.000 A 
ATOM    228  C6  A   B  48      15.854 -29.735  12.773  0.00  0.00    +0.000 A 
ATOM    229  N1  A   B  48      16.556 -30.078  13.873  0.00  0.00    +0.000 NA
ATOM    230  C2  A   B  48      16.308 -29.435  15.020  0.00  0.00    +0.000 A 
ATOM    231  N3  A   B  48      15.431 -28.460  15.264  0.00  0.00    +0.000 NA
ATOM    232  C4  A   B  48      14.752 -28.143  14.148  0.00  0.00    +0.000 A 
BRANCH 228 233
ATOM    233  N6  A   B  48      16.105 -30.377  11.625  0.00  0.00    +0.000 N 
ATOM    234  H   A   B  48      15.604 -30.143  10.810  0.00  0.00    +0.000 HD
ATOM    235  H   A   B  48      16.790 -31.083  11.596  0.00  0.00    +0.000 HD
ENDBRANCH 228 233
ENDBRANCH 223 224
BRANCH 222 236
ATOM    236  O2' A   B  48      14.100 -24.746  16.693  0.00  0.00    +0.000 OA
ATOM    237  H   A   B  48      13.174 -24.599  16.940  0.00  0.00    +0.000 HD
ENDBRANCH 222 236
BRANCH 221 238
ATOM    238  O3' A   B  48      13.843 -22.723  14.806  0.00  0.00    +0.000 OA
BRANCH 238 239
ATOM    239  P   U   B  49      15.030 -21.948  14.059  0.00  0.00    +0.000 P 
ATOM    240  OP2 U   B  49      14.963 -22.278  12.611  0.00  0.00    +0.000 OA
BRANCH 239 241
ATOM    241  OP1 U   B  49      14.991 -20.529  14.496  0.00  0.00    +0.000 OA
ATOM    242  H   U   B  49      15.702 -20.036  14.057  0.00  0.00    +0.000 HD
ENDBRANCH 239 241
BRANCH 239 243
ATOM    243  O5' U   B  49      16.344 -22.621  14.659  0.00  0.00    +0.000 OA
BRANCH 243 244
ATOM    244  C5' U   B  49      16.662 -22.505  16.038  0.00  0.00    +0.000 C 
BRANCH 244 245
ATOM    245  C4' U   B  49      17.791 -23.429  16.434  0.00  0.00    +0.000 C 
ATOM    246  O4' U   B  49      17.393 -24.811  16.228  0.00  0.00    +0.000 OA
ATOM    247  C3' U   B  49      19.071 -23.293  15.630  0.00  0.00    +0.000 C 
ATOM    248  C2' U   B  49      19.736 -24.643  15.853  0.00  0.00    +0.000 C 
ATOM    249  C1' U   B  49      18.517 -25.578  15.840  0.00  0.00    +0.000 C 
BRANCH 249 250
ATOM    250  N1  U   B  49      18.264 -26.140  14.495  0.00  0.00    +0.000 N 
ATOM    251  C2  U   B  49      18.999 -27.255  14.124  0.00  0.00    +0.000 A 
ATOM    252  O2  U   B  49      19.825 -27.775  14.853  0.00  0.00    +0.000 OA
ATOM    253  N3  U   B  49      18.729 -27.742  12.865  0.00  0.00    +0.000 N 
ATOM    254  C4  U   B  49      17.821 -27.234  11.958  0.00  0.00    +0.000 A 
ATOM    255  O4  U   B  49      17.691 -27.780  10.859  0.00  0.00    +0.000 OA
ATOM    256  C5  U   B  49      17.105 -26.082  12.412  0.00  0.00    +0.000 A 
ATOM    257  C6  U   B  49      17.346 -25.587  13.635  0.00  0.00    +0.000 A 
ATOM    258  H   U   B  49      19.237 -28.536  12.582  0.00  0.00    +0.000 HD
ENDBRANCH 249 250
BRANCH 248 259
ATOM    259  O2' U   B  49      20.348 -24.715  17.128  0.00  0.00    +0.000 OA
ATOM    260  H   U   B  49      19.690 -24.523  17.814  0.00  0.00    +0.000 HD
ENDBRANCH 248 259
BRANCH 247 261
ATOM    261  O3' U   B  49      19.871 -22.195  16.041  0.00  0.00    +0.000 OA
BRANCH 261 262
ATOM    262  P   U   B  50      20.773 -21.426  14.967  0.00  0.00    +0.000 P 
ATOM    263  OP2 U   B  50      19.986 -21.265  13.717  0.00  0.00    +0.000 OA
BRANCH 262 264
ATOM    264  OP1 U   B  50      21.348 -20.233  15.637  0.00  0.00    +0.000 OA
ATOM    265  H   U   B  50      21.902 -19.745  15.008  0.00  0.00    +0.000 HD
ENDBRANCH 262 264
BRANCH 262 266
ATOM    266  O5' U   B  50      21.953 -22.458  14.679  0.00  0.00    +0.000 OA
BRANCH 266 267
ATOM    267  C5' U   B  50      22.876 -22.819  15.700  0.00  0.00    +0.000 C 
BRANCH 267 268
ATOM    268  C4' U   B  50      23.742 -23.988  15.291  0.00  0.00    +0.000 C 
ATOM    269  O4' U   B  50      22.910 -25.155  15.038  0.00  0.00    +0.000 OA
ATOM    270  C3' U   B  50      24.530 -23.819  14.006  0.00  0.00    +0.000 C 
ATOM    271  C2' U   B  50      24.810 -25.261  13.609  0.00  0.00    +0.000 C 
ATOM    272  C1' U   B  50      23.494 -25.939  14.012  0.00  0.00    +0.000 C 
BRANCH 272 273
ATOM    273  N1  U   B  50      22.546 -26.020  12.878  0.00  0.00    +0.000 N 
ATOM    274  C2  U   B  50      22.728 -27.057  11.974  0.00  0.00    +0.000 A 
ATOM    275  O2  U   B  50      23.616 -27.882  12.085  0.00  0.00    +0.000 OA
ATOM    276  N3  U   B  50      21.825 -27.093  10.936  0.00  0.00    +0.000 N 
ATOM    277  C4  U   B  50      20.785 -26.214  10.710  0.00  0.00    +0.000 A 
ATOM    278  O4  U   B  50      20.058 -26.374   9.727  0.00  0.00    +0.000 OA
ATOM    279  C5  U   B  50      20.667 -25.171  11.684  0.00  0.00    +0.000 A 
ATOM    280  C6  U   B  50      21.531 -25.111  12.708  0.00  0.00    +0.000 A 
ATOM    281  H   U   B  50      21.932 -27.824  10.285  0.00  0.00    +0.000 HD
ENDBRANCH 272 273
BRANCH 271 282
ATOM    282  O2' U   B  50      25.857 -25.816  14.383  0.00  0.00    +0.000 OA
ATOM    283  H   U   B  50      25.638 -25.740  15.325  0.00  0.00    +0.000 HD
ENDBRANCH 271 282
BRANCH 270 284
ATOM    284  O3' U   B  50      25.705 -23.042  14.168  0.00  0.00    +0.000 OA
BRANCH 284 285
ATOM    285  P   U   B  51      26.272 -22.198  12.925  0.00  0.00    +0.000 P 
ATOM    286  OP2 U   B  51      25.131 -21.546  12.228  0.00  0.00    +0.000 OA
BRANCH 285 287
ATOM    287  OP1 U   B  51      27.398 -21.372  13.427  0.00  0.00    +0.000 OA
ATOM    288  H   U   B  51      27.765 -20.848  12.698  0.00  0.00    +0.000 HD
ENDBRANCH 285 287
BRANCH 285 289
ATOM    289  O5' U   B  51      26.865 -23.320  11.961  0.00  0.00    +0.000 OA
BRANCH 289 290
ATOM    290  C5' U   B  51      27.957 -24.132  12.368  0.00  0.00    +0.000 C 
BRANCH 290 291
ATOM    291  C4' U   B  51      28.207 -25.269  11.404  0.00  0.00    +0.000 C 
ATOM    292  O4' U   B  51      27.032 -26.122  11.325  0.00  0.00    +0.000 OA
ATOM    293  C3' U   B  51      28.469 -24.879   9.962  0.00  0.00    +0.000 C 
ATOM    294  C2' U   B  51      28.132 -26.162   9.216  0.00  0.00    +0.000 C 
ATOM    295  C1' U   B  51      26.928 -26.667  10.021  0.00  0.00    +0.000 C 
BRANCH 295 296
ATOM    296  N1  U   B  51      25.642 -26.240   9.424  0.00  0.00    +0.000 N 
ATOM    297  C2  U   B  51      25.175 -26.968   8.340  0.00  0.00    +0.000 A 
ATOM    298  O2  U   B  51      25.772 -27.922   7.876  0.00  0.00    +0.000 OA
ATOM    299  N3  U   B  51      23.977 -26.535   7.817  0.00  0.00    +0.000 N 
ATOM    300  C4  U   B  51      23.217 -25.471   8.254  0.00  0.00    +0.000 A 
ATOM    301  O4  U   B  51      22.159 -25.203   7.678  0.00  0.00    +0.000 OA
ATOM    302  C5  U   B  51      23.767 -24.770   9.377  0.00  0.00    +0.000 A 
ATOM    303  C6  U   B  51      24.932 -25.167   9.909  0.00  0.00    +0.000 A 
ATOM    304  H   U   B  51      23.625 -27.040   7.048  0.00  0.00    +0.000 HD
ENDBRANCH 295 296
BRANCH 294 305
ATOM    305  O2' U   B  51      29.175 -27.110   9.322  0.00  0.00    +0.000 OA
ATOM    306  H   U   B  51      29.364 -27.280  10.258  0.00  0.00    +0.000 HD
ENDBRANCH 294 305
BRANCH 293 307
ATOM    307  O3' U   B  51      29.796 -24.431   9.739  0.00  0.00    +0.000 OA
BRANCH 307 308
ATOM    308  P   U   B  52      30.103 -23.410   8.544  0.00  0.00    +0.000 P 
ATOM    309  OP2 U   B  52      29.023 -22.386   8.500  0.00  0.00    +0.000 OA
BRANCH 308 310
ATOM    310  OP1 U   B  52      31.517 -22.983   8.675  0.00  0.00    +0.000 OA
ATOM    311  H   U   B  52      31.734 -22.362   7.963  0.00  0.00    +0.000 HD
ENDBRANCH 308 310
BRANCH 308 312
ATOM    312  O5' U   B  52      29.975 -24.323   7.242  0.00  0.00    +0.000 OA
BRANCH 312 313
ATOM    313  C5' U   B  52      30.843 -25.423   7.029  0.00  0.00    +0.000 C 
BRANCH 313 314
ATOM    314  C4' U   B  52      30.423 -26.253   5.836  0.00  0.00    +0.000 C 
ATOM    315  O4' U   B  52      29.101 -26.816   6.062  0.00  0.00    +0.000 OA
ATOM    316  C3' U   B  52      30.283 -25.510   4.521  0.00  0.00    +0.000 C 
ATOM    317  C2' U   B  52      29.362 -26.428   3.729  0.00  0.00    +0.000 C 
ATOM    318  C1' U   B  52      28.413 -26.922   4.830  0.00  0.00    +0.000 C 
BRANCH 318 319
ATOM    319  N1  U   B  52      27.172 -26.116   4.904  0.00  0.00    +0.000 N 
ATOM    320  C2  U   B  52      26.172 -26.399   3.983  0.00  0.00    +0.000 A 
ATOM    321  O2  U   B  52      26.278 -27.269   3.136  0.00  0.00    +0.000 OA
ATOM    322  N3  U   B  52      25.039 -25.625   4.091  0.00  0.00    +0.000 N 
ATOM    323  C4  U   B  52      24.808 -24.616   5.003  0.00  0.00    +0.000 A 
ATOM    324  O4  U   B  52      23.737 -24.008   4.975  0.00  0.00    +0.000 OA
ATOM    325  C5  U   B  52      25.888 -24.382   5.920  0.00  0.00    +0.000 A 
ATOM    326  C6  U   B  52      27.004 -25.121   5.840  0.00  0.00    +0.000 A 
ATOM    327  H   U   B  52      24.316 -25.811   3.449  0.00  0.00    +0.000 HD
ENDBRANCH 318 319
BRANCH 317 328
ATOM    328  O2' U   B  52      30.064 -27.538   3.205  0.00  0.00    +0.000 OA
ATOM    329  H   U   B  52      30.505 -28.012   3.927  0.00  0.00    +0.000 HD
ENDBRANCH 317 328
BRANCH 316 330
ATOM    330  O3' U   B  52      31.530 -25.273   3.884  0.00  0.00    +0.000 OA
BRANCH 330 331
ATOM    331  P   A   B  53      31.720 -23.983   2.947  0.00  0.00    +0.000 P 
ATOM    332  OP1 A   B  53      33.164 -23.870   2.632  0.00  0.00    +0.000 OA
BRANCH 331 333
ATOM    333  OP2 A   B  53      31.005 -22.832   3.564  0.00  0.00    +0.000 OA
ATOM    334  H   A   B  53      31.114 -22.047   3.005  0.00  0.00    +0.000 HD
ENDBRANCH 331 333
BRANCH 331 335
ATOM    335  O5' A   B  53      30.948 -24.387   1.610  0.00  0.00    +0.000 OA
BRANCH 335 336
ATOM    336  C5' A   B  53      31.405 -25.459   0.802  0.00  0.00    +0.000 C 
BRANCH 336 337
ATOM    337  C4' A   B  53      30.433 -25.769  -0.317  0.00  0.00    +0.000 C 
ATOM    338  O4' A   B  53      29.177 -26.249   0.234  0.00  0.00    +0.000 OA
ATOM    339  C3' A   B  53      30.022 -24.591  -1.189  0.00  0.00    +0.000 C 
ATOM    340  C2' A   B  53      28.707 -25.079  -1.782  0.00  0.00    +0.000 C 
ATOM    341  C1' A   B  53      28.105 -25.833  -0.592  0.00  0.00    +0.000 C 
BRANCH 341 342
ATOM    342  N9  A   B  53      27.204 -24.977   0.203  0.00  0.00    +0.000 N 
ATOM    343  C8  A   B  53      27.467 -24.331   1.386  0.00  0.00    +0.000 A 
ATOM    344  N7  A   B  53      26.445 -23.642   1.848  0.00  0.00    +0.000 NA
ATOM    345  C5  A   B  53      25.442 -23.847   0.903  0.00  0.00    +0.000 A 
ATOM    346  C6  A   B  53      24.118 -23.390   0.806  0.00  0.00    +0.000 A 
ATOM    347  N6  A   B  53      23.542 -22.589   1.714  0.00  0.00    +0.000 N 
ATOM    348  N1  A   B  53      23.392 -23.778  -0.263  0.00  0.00    +0.000 NA
ATOM    349  C2  A   B  53      23.963 -24.576  -1.175  0.00  0.00    +0.000 A 
ATOM    350  N3  A   B  53      25.202 -25.075  -1.195  0.00  0.00    +0.000 NA
ATOM    351  C4  A   B  53      25.897 -24.667  -0.115  0.00  0.00    +0.000 A 
ATOM    352  H   A   B  53      22.609 -22.300   1.594  0.00  0.00    +0.000 HD
ATOM    353  H   A   B  53      24.052 -22.290   2.501  0.00  0.00    +0.000 HD
ENDBRANCH 341 342
BRANCH 340 354
ATOM    354  O2' A   B  53      28.924 -25.995  -2.838  0.00  0.00    +0.000 OA
ATOM    355  H   A   B  53      29.467 -26.733  -2.520  0.00  0.00    +0.000 HD
ENDBRANCH 340 354
BRANCH 339 356
ATOM    356  O3' A   B  53      30.994 -24.255  -2.170  0.00  0.00    +0.000 OA
BRANCH 356 357
ATOM    357  P   A   B  54      31.144 -22.723  -2.658  0.00  0.00    +0.000 P 
ATOM    358  OP1 A   B  54      32.355 -22.654  -3.508  0.00  0.00    +0.000 OA
BRANCH 357 359
ATOM    359  OP2 A   B  54      31.018 -21.826  -1.477  0.00  0.00    +0.000 OA
ATOM    360  H   A   B  54      31.107 -20.903  -1.761  0.00  0.00    +0.000 HD
ENDBRANCH 357 359
BRANCH 357 361
ATOM    361  O5' A   B  54      29.866 -22.500  -3.590  0.00  0.00    +0.000 OA
BRANCH 361 362
ATOM    362  C5' A   B  54      29.709 -23.239  -4.790  0.00  0.00    +0.000 C 
BRANCH 362 363
ATOM    363  C4' A   B  54      28.310 -23.104  -5.352  0.00  0.00    +0.000 C 
ATOM    364  O4' A   B  54      27.335 -23.575  -4.380  0.00  0.00    +0.000 OA
ATOM    365  C3' A   B  54      27.846 -21.691  -5.671  0.00  0.00    +0.000 C 
ATOM    366  C2' A   B  54      26.332 -21.847  -5.667  0.00  0.00    +0.000 C 
ATOM    367  C1' A   B  54      26.138 -22.832  -4.508  0.00  0.00    +0.000 C 
BRANCH 367 368
ATOM    368  N9  A   B  54      25.873 -22.134  -3.238  0.00  0.00    +0.000 N 
ATOM    369  C8  A   B  54      26.739 -21.891  -2.200  0.00  0.00    +0.000 A 
ATOM    370  N7  A   B  54      26.189 -21.240  -1.200  0.00  0.00    +0.000 NA
ATOM    371  C5  A   B  54      24.874 -21.036  -1.607  0.00  0.00    +0.000 A 
ATOM    372  C6  A   B  54      23.774 -20.408  -1.001  0.00  0.00    +0.000 A 
ATOM    373  N6  A   B  54      23.826 -19.831   0.209  0.00  0.00    +0.000 N 
ATOM    374  N1  A   B  54      22.607 -20.380  -1.679  0.00  0.00    +0.000 NA
ATOM    375  C2  A   B  54      22.551 -20.949  -2.890  0.00  0.00    +0.000 A 
ATOM    376  N3  A   B  54      23.516 -21.575  -3.567  0.00  0.00    +0.000 NA
ATOM    377  C4  A   B  54      24.666 -21.582  -2.860  0.00  0.00    +0.000 A 
ATOM    378  H   A   B  54      23.023 -19.405   0.586  0.00  0.00    +0.000 HD
ATOM    379  H   A   B  54      24.667 -19.834   0.720  0.00  0.00    +0.000 HD
ENDBRANCH 367 368
BRANCH 366 380
ATOM    380  O2' A   B  54      25.872 -22.452  -6.860  0.00  0.00    +0.000 OA
ATOM    381  H   A   B  54      26.319 -23.304  -6.984  0.00  0.00    +0.000 HD
ENDBRANCH 366 380
BRANCH 365 382
ATOM    382  O3' A   B  54      28.359 -21.199  -6.902  0.00  0.00    +0.000 OA
BRANCH 382 383
ATOM    383  P   A   B  55      28.560 -19.609  -7.105  0.00  0.00    +0.000 P 
ATOM    384  OP1 A   B  55      29.260 -19.425  -8.397  0.00  0.00    +0.000 OA
BRANCH 383 385
ATOM    385  OP2 A   B  55      29.144 -19.039  -5.858  0.00  0.00    +0.000 OA
ATOM    386  H   A   B  55      29.270 -18.083  -5.967  0.00  0.00    +0.000 HD
ENDBRANCH 383 385
BRANCH 383 387
ATOM    387  O5' A   B  55      27.071 -19.045  -7.260  0.00  0.00    +0.000 OA
BRANCH 387 388
ATOM    388  C5' A   B  55      26.265 -19.432  -8.358  0.00  0.00    +0.000 C 
BRANCH 388 389
ATOM    389  C4' A   B  55      24.835 -18.959  -8.195  0.00  0.00    +0.000 C 
ATOM    390  O4' A   B  55      24.257 -19.528  -6.988  0.00  0.00    +0.000 OA
ATOM    391  C3' A   B  55      24.640 -17.460  -8.019  0.00  0.00    +0.000 C 
ATOM    392  C2' A   B  55      23.276 -17.393  -7.350  0.00  0.00    +0.000 C 
ATOM    393  C1' A   B  55      23.335 -18.616  -6.426  0.00  0.00    +0.000 C 
BRANCH 393 394
ATOM    394  N9  A   B  55      23.785 -18.259  -5.070  0.00  0.00    +0.000 N 
ATOM    395  C8  A   B  55      25.021 -18.449  -4.503  0.00  0.00    +0.000 A 
ATOM    396  N7  A   B  55      25.104 -18.018  -3.265  0.00  0.00    +0.000 NA
ATOM    397  C5  A   B  55      23.839 -17.508  -2.997  0.00  0.00    +0.000 A 
ATOM    398  C6  A   B  55      23.277 -16.906  -1.861  0.00  0.00    +0.000 A 
ATOM    399  N6  A   B  55      23.954 -16.700  -0.723  0.00  0.00    +0.000 N 
ATOM    400  N1  A   B  55      21.988 -16.510  -1.929  0.00  0.00    +0.000 NA
ATOM    401  C2  A   B  55      21.309 -16.710  -3.065  0.00  0.00    +0.000 A 
ATOM    402  N3  A   B  55      21.725 -17.267  -4.203  0.00  0.00    +0.000 NA
ATOM    403  C4  A   B  55      23.017 -17.649  -4.100  0.00  0.00    +0.000 A 
ATOM    404  H   A   B  55      24.895 -16.981  -0.652  0.00  0.00    +0.000 HD
ATOM    405  H   A   B  55      23.511 -16.268   0.042  0.00  0.00    +0.000 HD
ENDBRANCH 393 394
BRANCH 392 406
ATOM    406  O2' A   B  55      22.233 -17.579  -8.289  0.00  0.00    +0.000 OA
ATOM    407  H   A   B  55      22.363 -18.420  -8.754  0.00  0.00    +0.000 HD
ENDBRANCH 392 406
BRANCH 391 408
ATOM    408  O3' A   B  55      24.706 -16.744  -9.246  0.00  0.00    +0.000 OA
BRANCH 408 409
ATOM    409  P   A   B  56      25.196 -15.209  -9.262  0.00  0.00    +0.000 P 
ATOM    410  OP1 A   B  56      25.336 -14.805 -10.680  0.00  0.00    +0.000 OA
BRANCH 409 411
ATOM    411  OP2 A   B  56      26.356 -15.082  -8.336  0.00  0.00    +0.000 OA
ATOM    412  H   A   B  56      27.114 -15.566  -8.699  0.00  0.00    +0.000 HD
ENDBRANCH 409 411
BRANCH 409 413
ATOM    413  O5' A   B  56      23.969 -14.401  -8.633  0.00  0.00    +0.000 OA
BRANCH 413 414
ATOM    414  C5' A   B  56      22.718 -14.360  -9.294  0.00  0.00    +0.000 C 
BRANCH 414 415
ATOM    415  C4' A   B  56      21.659 -13.700  -8.434  0.00  0.00    +0.000 C 
ATOM    416  O4' A   B  56      21.483 -14.452  -7.204  0.00  0.00    +0.000 OA
ATOM    417  C3' A   B  56      21.971 -12.289  -7.962  0.00  0.00    +0.000 C 
ATOM    418  C2' A   B  56      21.079 -12.157  -6.734  0.00  0.00    +0.000 C 
ATOM    419  C1' A   B  56      21.158 -13.571  -6.148  0.00  0.00    +0.000 C 
BRANCH 419 420
ATOM    420  N9  A   B  56      22.187 -13.685  -5.100  0.00  0.00    +0.000 N 
ATOM    421  C8  A   B  56      23.455 -14.200  -5.207  0.00  0.00    +0.000 A 
ATOM    422  N7  A   B  56      24.133 -14.166  -4.082  0.00  0.00    +0.000 NA
ATOM    423  C5  A   B  56      23.255 -13.590  -3.173  0.00  0.00    +0.000 A 
ATOM    424  C6  A   B  56      23.367 -13.277  -1.810  0.00  0.00    +0.000 A 
ATOM    425  N6  A   B  56      24.473 -13.509  -1.086  0.00  0.00    +0.000 N 
ATOM    426  N1  A   B  56      22.303 -12.707  -1.204  0.00  0.00    +0.000 NA
ATOM    427  C2  A   B  56      21.199 -12.471  -1.921  0.00  0.00    +0.000 A 
ATOM    428  N3  A   B  56      20.970 -12.722  -3.212  0.00  0.00    +0.000 NA
ATOM    429  C4  A   B  56      22.052 -13.289  -3.787  0.00  0.00    +0.000 A 
ATOM    430  H   A   B  56      25.260 -13.924  -1.508  0.00  0.00    +0.000 HD
ATOM    431  H   A   B  56      24.498 -13.265  -0.133  0.00  0.00    +0.000 HD
ENDBRANCH 419 420
BRANCH 418 432
ATOM    432  O2' A   B  56      19.738 -11.888  -7.099  0.00  0.00    +0.000 OA
ATOM    433  H   A   B  56      19.421 -12.582  -7.698  0.00  0.00    +0.000 HD
ENDBRANCH 418 432
BRANCH 417 434
ATOM    434  O3' A   B  56      21.713 -11.307  -8.958  0.00  0.00    +0.000 OA
BRANCH 434 435
ATOM    435  P   A   B  57      22.530  -9.924  -8.979  0.00  0.00    +0.000 P 
ATOM    436  OP1 A   B  57      22.219  -9.235 -10.251  0.00  0.00    +0.000 OA
BRANCH 435 437
ATOM    437  OP2 A   B  57      23.943 -10.219  -8.626  0.00  0.00    +0.000 OA
ATOM    438  H   A   B  57      24.355 -10.729  -9.341  0.00  0.00    +0.000 HD
ENDBRANCH 435 437
BRANCH 435 439
ATOM    439  O5' A   B  57      21.886  -9.086  -7.784  0.00  0.00    +0.000 OA
BRANCH 439 440
ATOM    440  C5' A   B  57      20.541  -8.657  -7.840  0.00  0.00    +0.000 C 
BRANCH 440 441
ATOM    441  C4' A   B  57      20.116  -8.010  -6.540  0.00  0.00    +0.000 C 
ATOM    442  O4' A   B  57      20.184  -8.983  -5.465  0.00  0.00    +0.000 OA
ATOM    443  C3' A   B  57      20.991  -6.865  -6.062  0.00  0.00    +0.000 C 
ATOM    444  C2' A   B  57      20.726  -6.854  -4.558  0.00  0.00    +0.000 C 
ATOM    445  C1' A   B  57      20.578  -8.355  -4.267  0.00  0.00    +0.000 C 
BRANCH 445 446
ATOM    446  N9  A   B  57      21.840  -8.965  -3.812  0.00  0.00    +0.000 N 
ATOM    447  C8  A   B  57      22.812  -9.559  -4.575  0.00  0.00    +0.000 A 
ATOM    448  N7  A   B  57      23.825 -10.019  -3.875  0.00  0.00    +0.000 NA
ATOM    449  C5  A   B  57      23.498  -9.708  -2.564  0.00  0.00    +0.000 A 
ATOM    450  C6  A   B  57      24.155  -9.930  -1.342  0.00  0.00    +0.000 A 
ATOM    451  N6  A   B  57      25.345 -10.541  -1.245  0.00  0.00    +0.000 N 
ATOM    452  N1  A   B  57      23.552  -9.496  -0.215  0.00  0.00    +0.000 NA
ATOM    453  C2  A   B  57      22.367  -8.884  -0.309  0.00  0.00    +0.000 A 
ATOM    454  N3  A   B  57      21.645  -8.616  -1.402  0.00  0.00    +0.000 NA
ATOM    455  C4  A   B  57      22.276  -9.062  -2.509  0.00  0.00    +0.000 A 
ATOM    456  H   A   B  57      25.800 -10.864  -2.056  0.00  0.00    +0.000 HD
ATOM    457  H   A   B  57      25.764 -10.666  -0.363  0.00  0.00    +0.000 HD
ENDBRANCH 445 446
BRANCH 444 458
ATOM    458  O2' A   B  57      19.504  -6.204  -4.254  0.00  0.00    +0.000 OA
ATOM    459  H   A   B  57      18.781  -6.630  -4.741  0.00  0.00    +0.000 HD
ENDBRANCH 444 458
BRANCH 443 460
ATOM    460  O3' A   B  57      20.669  -5.636  -6.698  0.00  0.00    +0.000 OA
BRANCH 460 461
ATOM    461  P   C   B  58      21.800  -4.847  -7.488  0.00  0.00    +0.000 P 
ATOM    462  OP1 C   B  58      21.713  -5.252  -8.922  0.00  0.00    +0.000 OA
BRANCH 461 463
ATOM    463  OP2 C   B  58      23.088  -4.981  -6.767  0.00  0.00    +0.000 OA
ATOM    464  H   C   B  58      23.779  -4.500  -7.248  0.00  0.00    +0.000 HD
ENDBRANCH 461 463
BRANCH 461 465
ATOM    465  O5' C   B  58      21.320  -3.320  -7.373  0.00  0.00    +0.000 OA
BRANCH 465 466
ATOM    466  C5' C   B  58      21.639  -2.536  -6.244  0.00  0.00    +0.000 C 
BRANCH 466 467
ATOM    467  C4' C   B  58      20.948  -1.199  -6.293  0.00  0.00    +0.000 C 
ATOM    468  O4' C   B  58      21.172  -0.590  -7.584  0.00  0.00    +0.000 OA
ATOM    469  C3' C   B  58      19.441  -1.225  -6.154  0.00  0.00    +0.000 C 
ATOM    470  C2' C   B  58      19.007   0.056  -6.851  0.00  0.00    +0.000 C 
ATOM    471  C1' C   B  58      20.046   0.166  -7.974  0.00  0.00    +0.000 C 
BRANCH 471 472
ATOM    472  N1  C   B  58      19.546  -0.333  -9.276  0.00  0.00    +0.000 N 
ATOM    473  C2  C   B  58      18.639   0.450 -10.000  0.00  0.00    +0.000 A 
ATOM    474  O2  C   B  58      18.255   1.537  -9.524  0.00  0.00    +0.000 OA
ATOM    475  N3  C   B  58      18.192   0.006 -11.199  0.00  0.00    +0.000 NA
ATOM    476  C4  C   B  58      18.623  -1.169 -11.676  0.00  0.00    +0.000 A 
ATOM    477  N4  C   B  58      18.155  -1.563 -12.869  0.00  0.00    +0.000 N 
ATOM    478  C5  C   B  58      19.550  -1.984 -10.963  0.00  0.00    +0.000 A 
ATOM    479  C6  C   B  58      19.985  -1.528  -9.773  0.00  0.00    +0.000 A 
ATOM    480  H   C   B  58      17.515  -0.997 -13.358  0.00  0.00    +0.000 HD
ATOM    481  H   C   B  58      18.451  -2.418 -13.256  0.00  0.00    +0.000 HD
ENDBRANCH 471 472
BRANCH 470 482
ATOM    482  O2' C   B  58      19.131   1.176  -5.996  0.00  0.00    +0.000 OA
ATOM    483  H   C   B  58      20.045   1.239  -5.676  0.00  0.00    +0.000 HD
ENDBRANCH 470 482
BRANCH 469 484
ATOM    484  O3' C   B  58      19.025  -1.261  -4.793  0.00  0.00    +0.000 OA
BRANCH 484 485
ATOM    485  P   A   B  59      18.169  -2.496  -4.186  0.00  0.00    +0.000 P 
ATOM    486  OP1 A   B  59      17.705  -3.368  -5.309  0.00  0.00    +0.000 OA
BRANCH 485 487
ATOM    487  OP2 A   B  59      17.176  -1.897  -3.264  0.00  0.00    +0.000 OA
ATOM    488  H   A   B  59      16.526  -1.389  -3.774  0.00  0.00    +0.000 HD
ENDBRANCH 485 487
BRANCH 485 489
ATOM    489  O5' A   B  59      19.224  -3.324  -3.315  0.00  0.00    +0.000 OA
BRANCH 489 490
ATOM    490  C5' A   B  59      20.391  -2.709  -2.791  0.00  0.00    +0.000 C 
BRANCH 490 491
ATOM    491  C4' A   B  59      20.594  -3.073  -1.339  0.00  0.00    +0.000 C 
ATOM    492  O4' A   B  59      20.805  -4.494  -1.202  0.00  0.00    +0.000 OA
ATOM    493  C3' A   B  59      21.816  -2.448  -0.684  0.00  0.00    +0.000 C 
ATOM    494  C2' A   B  59      22.106  -3.417   0.462  0.00  0.00    +0.000 C 
ATOM    495  C1' A   B  59      21.720  -4.756  -0.163  0.00  0.00    +0.000 C 
BRANCH 495 496
ATOM    496  N9  A   B  59      22.868  -5.485  -0.732  0.00  0.00    +0.000 N 
ATOM    497  C8  A   B  59      23.085  -5.819  -2.045  0.00  0.00    +0.000 A 
ATOM    498  N7  A   B  59      24.201  -6.488  -2.243  0.00  0.00    +0.000 NA
ATOM    499  C5  A   B  59      24.748  -6.606  -0.975  0.00  0.00    +0.000 A 
ATOM    500  C6  A   B  59      25.925  -7.213  -0.505  0.00  0.00    +0.000 A 
ATOM    501  N1  A   B  59      26.179  -7.154   0.821  0.00  0.00    +0.000 NA
ATOM    502  C2  A   B  59      25.303  -6.523   1.617  0.00  0.00    +0.000 A 
ATOM    503  N3  A   B  59      24.157  -5.915   1.293  0.00  0.00    +0.000 NA
ATOM    504  C4  A   B  59      23.938  -5.996  -0.033  0.00  0.00    +0.000 A 
BRANCH 500 505
ATOM    505  N6  A   B  59      26.805  -7.842  -1.301  0.00  0.00    +0.000 N 
ATOM    506  H   A   B  59      26.640  -7.897  -2.270  0.00  0.00    +0.000 HD
ATOM    507  H   A   B  59      27.615  -8.248  -0.915  0.00  0.00    +0.000 HD
ENDBRANCH 500 505
ENDBRANCH 495 496
BRANCH 494 508
ATOM    508  O2' A   B  59      21.259  -3.164   1.573  0.00  0.00    +0.000 OA
ATOM    509  H   A   B  59      20.332  -3.210   1.290  0.00  0.00    +0.000 HD
ENDBRANCH 494 508
BRANCH 493 510
ATOM    510  O3' A   B  59      21.564  -1.119  -0.248  0.00  0.00    +0.000 OA
BRANCH 510 511
ATOM    511  P   G   B  60      22.682   0.017  -0.357  0.00  0.00    +0.000 P 
ATOM    512  OP2 G   B  60      23.481  -0.228  -1.581  0.00  0.00    +0.000 OA
BRANCH 511 513
ATOM    513  OP1 G   B  60      22.033   1.338  -0.159  0.00  0.00    +0.000 OA
ATOM    514  H   G   B  60      21.468   1.538  -0.922  0.00  0.00    +0.000 HD
ENDBRANCH 511 513
BRANCH 511 515
ATOM    515  O5' G   B  60      23.600  -0.283   0.908  0.00  0.00    +0.000 OA
BRANCH 515 516
ATOM    516  C5' G   B  60      23.039  -0.380   2.209  0.00  0.00    +0.000 C 
BRANCH 516 517
ATOM    517  C4' G   B  60      24.071  -0.796   3.236  0.00  0.00    +0.000 C 
ATOM    518  O4' G   B  60      24.671  -2.061   2.834  0.00  0.00    +0.000 OA
ATOM    519  C3' G   B  60      25.228   0.175   3.417  0.00  0.00    +0.000 C 
ATOM    520  C2' G   B  60      26.315  -0.413   2.532  0.00  0.00    +0.000 C 
ATOM    521  C1' G   B  60      26.067  -1.908   2.715  0.00  0.00    +0.000 C 
BRANCH 521 522
ATOM    522  N9  G   B  60      26.540  -2.735   1.600  0.00  0.00    +0.000 N 
ATOM    523  C8  G   B  60      26.021  -2.793   0.331  0.00  0.00    +0.000 A 
ATOM    524  N7  G   B  60      26.661  -3.627  -0.446  0.00  0.00    +0.000 NA
ATOM    525  C5  G   B  60      27.659  -4.156   0.363  0.00  0.00    +0.000 A 
ATOM    526  C6  G   B  60      28.665  -5.110   0.078  0.00  0.00    +0.000 A 
ATOM    527  O6  G   B  60      28.882  -5.706  -0.991  0.00  0.00    +0.000 OA
ATOM    528  N1  G   B  60      29.471  -5.359   1.185  0.00  0.00    +0.000 NA
ATOM    529  C2  G   B  60      29.329  -4.757   2.411  0.00  0.00    +0.000 A 
ATOM    530  N2  G   B  60      30.211  -5.125   3.360  0.00  0.00    +0.000 N 
ATOM    531  N3  G   B  60      28.392  -3.865   2.697  0.00  0.00    +0.000 N 
ATOM    532  C4  G   B  60      27.597  -3.613   1.629  0.00  0.00    +0.000 A 
ATOM    533  H   G   B  60      30.909  -5.787   3.153  0.00  0.00    +0.000 HD
ATOM    534  H   G   B  60      30.157  -4.732   4.261  0.00  0.00    +0.000 HD
ATOM    535  H   G   B  60      28.286  -3.438   3.578  0.00  0.00    +0.000 HD
ENDBRANCH 521 522
BRANCH 520 536
ATOM    536  O2' G   B  60      27.636  -0.052   2.876  0.00  0.00    +0.000 OA
ATOM    537  H   G   B  60      27.820  -0.329   3.787  0.00  0.00    +0.000 HD
ENDBRANCH 520 536
BRANCH 519 538
ATOM    538  O3' G   B  60      25.667   0.149   4.777  0.00  0.00    +0.000 OA
BRANCH 538 539
ATOM    539  P   A   B  61      25.326   1.306   5.767  0.00  0.00    +0.000 P 
ATOM    540  OP2 A   B  61      24.826   2.494   5.020  0.00  0.00    +0.000 OA
BRANCH 539 541
ATOM    541  OP1 A   B  61      24.516   0.715   6.847  0.00  0.00    +0.000 OA
ATOM    542  H   A   B  61      23.638   0.485   6.504  0.00  0.00    +0.000 HD
ENDBRANCH 539 541
BRANCH 539 543
ATOM    543  O5' A   B  61      26.755   1.668   6.370  0.00  0.00    +0.000 OA
BRANCH 543 544
ATOM    544  C5' A   B  61      27.642   0.652   6.813  0.00  0.00    +0.000 C 
BRANCH 544 545
ATOM    545  C4' A   B  61      28.694   1.207   7.729  0.00  0.00    +0.000 C 
ATOM    546  O4' A   B  61      29.467   2.217   7.031  0.00  0.00    +0.000 OA
ATOM    547  C3' A   B  61      28.174   1.930   8.959  0.00  0.00    +0.000 C 
ATOM    548  C2' A   B  61      29.323   2.859   9.304  0.00  0.00    +0.000 C 
ATOM    549  C1' A   B  61      29.792   3.269   7.912  0.00  0.00    +0.000 C 
BRANCH 549 550
ATOM    550  N9  A   B  61      29.123   4.490   7.438  0.00  0.00    +0.000 N 
ATOM    551  C8  A   B  61      28.159   4.590   6.466  0.00  0.00    +0.000 A 
ATOM    552  N7  A   B  61      27.742   5.819   6.260  0.00  0.00    +0.000 NA
ATOM    553  C5  A   B  61      28.486   6.579   7.153  0.00  0.00    +0.000 A 
ATOM    554  C6  A   B  61      28.518   7.957   7.422  0.00  0.00    +0.000 A 
ATOM    555  N1  A   B  61      29.370   8.389   8.372  0.00  0.00    +0.000 NA
ATOM    556  C2  A   B  61      30.141   7.490   9.007  0.00  0.00    +0.000 A 
ATOM    557  N3  A   B  61      30.202   6.171   8.840  0.00  0.00    +0.000 NA
ATOM    558  C4  A   B  61      29.338   5.774   7.885  0.00  0.00    +0.000 A 
BRANCH 554 559
ATOM    559  N6  A   B  61      27.746   8.851   6.792  0.00  0.00    +0.000 N 
ATOM    560  H   A   B  61      27.117   8.554   6.095  0.00  0.00    +0.000 HD
ATOM    561  H   A   B  61      27.807   9.805   7.026  0.00  0.00    +0.000 HD
ENDBRANCH 554 559
ENDBRANCH 549 550
BRANCH 548 562
ATOM    562  O2' A   B  61      30.370   2.173   9.965  0.00  0.00    +0.000 OA
ATOM    563  H   A   B  61      30.667   1.430   9.416  0.00  0.00    +0.000 HD
ENDBRANCH 548 562
BRANCH 547 564
ATOM    564  O3' A   B  61      27.820   1.047  10.011  0.00  0.00    +0.000 OA
BRANCH 564 565
ATOM    565  P   C   B  62      26.574   1.411  10.961  0.00  0.00    +0.000 P 
ATOM    566  OP2 C   B  62      25.462   1.944  10.131  0.00  0.00    +0.000 OA
BRANCH 565 567
ATOM    567  OP1 C   B  62      26.343   0.240  11.842  0.00  0.00    +0.000 OA
ATOM    568  H   C   B  62      25.998  -0.498  11.315  0.00  0.00    +0.000 HD
ENDBRANCH 565 567
BRANCH 565 569
ATOM    569  O5' C   B  62      27.138   2.599  11.856  0.00  0.00    +0.000 OA
BRANCH 569 570
ATOM    570  C5' C   B  62      28.271   2.400  12.700  0.00  0.00    +0.000 C 
BRANCH 570 571
ATOM    571  C4' C   B  62      28.691   3.683  13.374  0.00  0.00    +0.000 C 
ATOM    572  O4' C   B  62      29.201   4.621  12.392  0.00  0.00    +0.000 OA
ATOM    573  C3' C   B  62      27.595   4.456  14.075  0.00  0.00    +0.000 C 
ATOM    574  C2' C   B  62      28.181   5.858  14.144  0.00  0.00    +0.000 C 
ATOM    575  C1' C   B  62      28.902   5.944  12.796  0.00  0.00    +0.000 C 
BRANCH 575 576
ATOM    576  N1  C   B  62      28.065   6.585  11.755  0.00  0.00    +0.000 N 
ATOM    577  C2  C   B  62      28.024   7.984  11.700  0.00  0.00    +0.000 A 
ATOM    578  O2  C   B  62      28.690   8.641  12.519  0.00  0.00    +0.000 OA
ATOM    579  N3  C   B  62      27.260   8.589  10.754  0.00  0.00    +0.000 NA
ATOM    580  C4  C   B  62      26.557   7.851   9.891  0.00  0.00    +0.000 A 
ATOM    581  N4  C   B  62      25.819   8.493   8.981  0.00  0.00    +0.000 N 
ATOM    582  C5  C   B  62      26.580   6.430   9.928  0.00  0.00    +0.000 A 
ATOM    583  C6  C   B  62      27.338   5.843  10.864  0.00  0.00    +0.000 A 
ATOM    584  H   C   B  62      25.288   7.982   8.329  0.00  0.00    +0.000 HD
ATOM    585  H   C   B  62      25.807   9.477   8.963  0.00  0.00    +0.000 HD
ENDBRANCH 575 576
BRANCH 574 586
ATOM    586  O2' C   B  62      29.141   5.974  15.177  0.00  0.00    +0.000 OA
ATOM    587  H   C   B  62      29.834   5.307  15.051  0.00  0.00    +0.000 HD
ENDBRANCH 574 586
BRANCH 573 588
ATOM    588  O3' C   B  62      27.264   3.917  15.342  0.00  0.00    +0.000 OA
BRANCH 588 589
ATOM    589  P   U   B  63      25.744   4.047  15.884  0.00  0.00    +0.000 P 
ATOM    590  OP2 U   B  63      24.807   3.920  14.735  0.00  0.00    +0.000 OA
BRANCH 589 591
ATOM    591  OP1 U   B  63      25.601   3.145  17.054  0.00  0.00    +0.000 OA
ATOM    592  H   U   B  63      25.633   2.222  16.757  0.00  0.00    +0.000 HD
ENDBRANCH 589 591
BRANCH 589 593
ATOM    593  O5' U   B  63      25.687   5.553  16.406  0.00  0.00    +0.000 OA
BRANCH 593 594
ATOM    594  C5' U   B  63      26.522   5.984  17.473  0.00  0.00    +0.000 C 
BRANCH 594 595
ATOM    595  C4' U   B  63      26.517   7.489  17.613  0.00  0.00    +0.000 C 
ATOM    596  O4' U   B  63      27.081   8.101  16.424  0.00  0.00    +0.000 OA
ATOM    597  C3' U   B  63      25.158   8.143  17.746  0.00  0.00    +0.000 C 
ATOM    598  C2' U   B  63      25.450   9.576  17.321  0.00  0.00    +0.000 C 
ATOM    599  C1' U   B  63      26.455   9.349  16.189  0.00  0.00    +0.000 C 
BRANCH 599 600
ATOM    600  N1  U   B  63      25.789   9.311  14.867  0.00  0.00    +0.000 N 
ATOM    601  C2  U   B  63      25.547  10.525  14.244  0.00  0.00    +0.000 A 
ATOM    602  O2  U   B  63      25.862  11.597  14.739  0.00  0.00    +0.000 OA
ATOM    603  N3  U   B  63      24.925  10.442  13.021  0.00  0.00    +0.000 N 
ATOM    604  C4  U   B  63      24.529   9.290  12.373  0.00  0.00    +0.000 A 
ATOM    605  O4  U   B  63      23.980   9.377  11.275  0.00  0.00    +0.000 OA
ATOM    606  C5  U   B  63      24.811   8.081  13.081  0.00  0.00    +0.000 A 
ATOM    607  C6  U   B  63      25.417   8.133  14.274  0.00  0.00    +0.000 A 
ATOM    608  H   U   B  63      24.743  11.293  12.560  0.00  0.00    +0.000 HD
ENDBRANCH 599 600
BRANCH 598 609
ATOM    609  O2' U   B  63      26.088  10.306  18.352  0.00  0.00    +0.000 OA
ATOM    610  H   U   B  63      26.897   9.844  18.622  0.00  0.00    +0.000 HD
ENDBRANCH 598 609
BRANCH 597 611
ATOM    611  O3' U   B  63      24.615   8.040  19.048  0.00  0.00    +0.000 OA
BRANCH 611 612
ATOM    612  P   A   B  64      23.012   8.049  19.245  0.00  0.00    +0.000 P 
ATOM    613  OP2 A   B  64      22.394   7.284  18.129  0.00  0.00    +0.000 OA
BRANCH 612 614
ATOM    614  OP1 A   B  64      22.719   7.665  20.650  0.00  0.00    +0.000 OA
ATOM    615  H   A   B  64      22.945   6.731  20.784  0.00  0.00    +0.000 HD
ENDBRANCH 612 614
BRANCH 612 616
ATOM    616  O5' A   B  64      22.628   9.586  19.064  0.00  0.00    +0.000 OA
BRANCH 616 617
ATOM    617  C5' A   B  64      23.092  10.557  19.992  0.00  0.00    +0.000 C 
BRANCH 617 618
ATOM    618  C4' A   B  64      22.769  11.960  19.533  0.00  0.00    +0.000 C 
ATOM    619  O4' A   B  64      23.486  12.259  18.307  0.00  0.00    +0.000 OA
ATOM    620  C3' A   B  64      21.318  12.228  19.176  0.00  0.00    +0.000 C 
ATOM    621  C2' A   B  64      21.432  13.447  18.276  0.00  0.00    +0.000 C 
ATOM    622  C1' A   B  64      22.713  13.129  17.507  0.00  0.00    +0.000 C 
BRANCH 622 623
ATOM    623  N9  A   B  64      22.427  12.470  16.222  0.00  0.00    +0.000 N 
ATOM    624  C8  A   B  64      22.464  11.130  15.936  0.00  0.00    +0.000 A 
ATOM    625  N7  A   B  64      22.160  10.851  14.692  0.00  0.00    +0.000 NA
ATOM    626  C5  A   B  64      21.903  12.090  14.119  0.00  0.00    +0.000 A 
ATOM    627  C6  A   B  64      21.528  12.478  12.822  0.00  0.00    +0.000 A 
ATOM    628  N1  A   B  64      21.355  13.793  12.587  0.00  0.00    +0.000 NA
ATOM    629  C2  A   B  64      21.546  14.658  13.590  0.00  0.00    +0.000 A 
ATOM    630  N3  A   B  64      21.901  14.414  14.851  0.00  0.00    +0.000 NA
ATOM    631  C4  A   B  64      22.064  13.095  15.051  0.00  0.00    +0.000 A 
BRANCH 627 632
ATOM    632  N6  A   B  64      21.333  11.611  11.818  0.00  0.00    +0.000 N 
ATOM    633  H   A   B  64      21.071  11.940  10.928  0.00  0.00    +0.000 HD
ATOM    634  H   A   B  64      21.452  10.646  11.971  0.00  0.00    +0.000 HD
ENDBRANCH 627 632
ENDBRANCH 622 623
BRANCH 621 635
ATOM    635  O2' A   B  64      21.636  14.634  19.025  0.00  0.00    +0.000 OA
ATOM    636  H   A   B  64      22.422  14.533  19.584  0.00  0.00    +0.000 HD
ENDBRANCH 621 635
BRANCH 620 637
ATOM    637  O3' A   B  64      20.500  12.437  20.311  0.00  0.00    +0.000 OA
BRANCH 637 638
ATOM    638  P   C   B  65      18.938  12.005  20.262  0.00  0.00    +0.000 P 
ATOM    639  OP2 C   B  65      18.817  10.730  19.505  0.00  0.00    +0.000 OA
BRANCH 638 640
ATOM    640  OP1 C   B  65      18.412  12.096  21.647  0.00  0.00    +0.000 OA
ATOM    641  H   C   B  65      17.476  11.843  21.654  0.00  0.00    +0.000 HD
ENDBRANCH 638 640
BRANCH 638 642
ATOM    642  O5' C   B  65      18.255  13.164  19.395  0.00  0.00    +0.000 OA
BRANCH 642 643
ATOM    643  C5' C   B  65      18.224  14.498  19.872  0.00  0.00    +0.000 C 
BRANCH 643 644
ATOM    644  C4' C   B  65      17.856  15.476  18.778  0.00  0.00    +0.000 C 
ATOM    645  O4' C   B  65      18.807  15.384  17.682  0.00  0.00    +0.000 OA
ATOM    646  C3' C   B  65      16.516  15.260  18.106  0.00  0.00    +0.000 C 
ATOM    647  C2' C   B  65      16.698  16.007  16.790  0.00  0.00    +0.000 C 
ATOM    648  C1' C   B  65      18.151  15.667  16.459  0.00  0.00    +0.000 C 
BRANCH 648 649
ATOM    649  N1  C   B  65      18.246  14.485  15.573  0.00  0.00    +0.000 N 
ATOM    650  C2  C   B  65      18.063  14.673  14.197  0.00  0.00    +0.000 A 
ATOM    651  O2  C   B  65      17.837  15.816  13.763  0.00  0.00    +0.000 OA
ATOM    652  N3  C   B  65      18.141  13.604  13.367  0.00  0.00    +0.000 NA
ATOM    653  C4  C   B  65      18.385  12.390  13.865  0.00  0.00    +0.000 A 
ATOM    654  N4  C   B  65      18.448  11.370  13.008  0.00  0.00    +0.000 N 
ATOM    655  C5  C   B  65      18.571  12.174  15.260  0.00  0.00    +0.000 A 
ATOM    656  C6  C   B  65      18.494  13.237  16.067  0.00  0.00    +0.000 A 
ATOM    657  H   C   B  65      18.318  11.528  12.045  0.00  0.00    +0.000 HD
ATOM    658  H   C   B  65      18.624  10.460  13.339  0.00  0.00    +0.000 HD
ENDBRANCH 648 649
BRANCH 647 659
ATOM    659  O2' C   B  65      16.589  17.405  16.968  0.00  0.00    +0.000 OA
ATOM    660  H   C   B  65      17.229  17.697  17.636  0.00  0.00    +0.000 HD
ENDBRANCH 647 659
BRANCH 646 661
ATOM    661  O3' C   B  65      15.417  15.730  18.870  0.00  0.00    +0.000 OA
BRANCH 661 662
ATOM    662  P   A   B  66      13.989  14.999  18.761  0.00  0.00    +0.000 P 
ATOM    663  OP2 A   B  66      14.215  13.529  18.842  0.00  0.00    +0.000 OA
BRANCH 662 664
ATOM    664  OP1 A   B  66      13.063  15.653  19.715  0.00  0.00    +0.000 OA
ATOM    665  H   A   B  66      12.193  15.226  19.665  0.00  0.00    +0.000 HD
ENDBRANCH 662 664
BRANCH 662 666
ATOM    666  O5' A   B  66      13.499  15.341  17.278  0.00  0.00    +0.000 OA
BRANCH 666 667
ATOM    667  C5' A   B  66      13.185  16.673  16.906  0.00  0.00    +0.000 C 
BRANCH 667 668
ATOM    668  C4' A   B  66      13.063  16.815  15.406  0.00  0.00    +0.000 C 
ATOM    669  O4' A   B  66      14.273  16.343  14.763  0.00  0.00    +0.000 OA
ATOM    670  C3' A   B  66      11.963  16.004  14.745  0.00  0.00    +0.000 C 
ATOM    671  C2' A   B  66      12.454  15.916  13.307  0.00  0.00    +0.000 C 
ATOM    672  C1' A   B  66      13.955  15.753  13.518  0.00  0.00    +0.000 C 
BRANCH 672 673
ATOM    673  N9  A   B  66      14.341  14.333  13.543  0.00  0.00    +0.000 N 
ATOM    674  C8  A   B  66      14.713  13.581  14.630  0.00  0.00    +0.000 A 
ATOM    675  N7  A   B  66      14.996  12.337  14.334  0.00  0.00    +0.000 NA
ATOM    676  C5  A   B  66      14.797  12.264  12.961  0.00  0.00    +0.000 A 
ATOM    677  C6  A   B  66      14.929  11.214  12.036  0.00  0.00    +0.000 A 
ATOM    678  N1  A   B  66      14.652  11.482  10.741  0.00  0.00    +0.000 NA
ATOM    679  C2  A   B  66      14.270  12.719  10.401  0.00  0.00    +0.000 A 
ATOM    680  N3  A   B  66      14.110  13.786  11.178  0.00  0.00    +0.000 NA
ATOM    681  C4  A   B  66      14.394  13.484  12.462  0.00  0.00    +0.000 A 
BRANCH 677 682
ATOM    682  N6  A   B  66      15.308   9.977  12.376  0.00  0.00    +0.000 N 
ATOM    683  H   A   B  66      15.384   9.278  11.686  0.00  0.00    +0.000 HD
ATOM    684  H   A   B  66      15.511   9.765  13.316  0.00  0.00    +0.000 HD
ENDBRANCH 677 682
ENDBRANCH 672 673
BRANCH 671 685
ATOM    685  O2' A   B  66      12.222  17.122  12.602  0.00  0.00    +0.000 OA
ATOM    686  H   A   B  66      12.640  17.859  13.075  0.00  0.00    +0.000 HD
ENDBRANCH 671 685
BRANCH 670 687
ATOM    687  O3' A   B  66      10.680  16.596  14.864  0.00  0.00    +0.000 OA
BRANCH 687 688
ATOM    688  P   A   B  67       9.375  15.692  15.096  0.00  0.00    +0.000 P 
ATOM    689  OP1 A   B  67       8.192  16.586  15.163  0.00  0.00    +0.000 OA
BRANCH 688 690
ATOM    690  OP2 A   B  67       9.651  14.745  16.214  0.00  0.00    +0.000 OA
ATOM    691  H   A   B  67      10.454  14.237  16.017  0.00  0.00    +0.000 HD
ENDBRANCH 688 690
BRANCH 688 692
ATOM    692  O5' A   B  67       9.280  14.842  13.745  0.00  0.00    +0.000 OA
BRANCH 692 693
ATOM    693  C5' A   B  67       9.020  15.467  12.503  0.00  0.00    +0.000 C 
BRANCH 693 694
ATOM    694  C4' A   B  67       9.297  14.533  11.346  0.00  0.00    +0.000 C 
ATOM    695  O4' A   B  67      10.665  14.056  11.417  0.00  0.00    +0.000 OA
ATOM    696  C3' A   B  67       8.468  13.261  11.310  0.00  0.00    +0.000 C 
ATOM    697  C2' A   B  67       9.342  12.334  10.477  0.00  0.00    +0.000 C 
ATOM    698  C1' A   B  67      10.731  12.714  10.973  0.00  0.00    +0.000 C 
BRANCH 698 699
ATOM    699  N9  A   B  67      11.157  11.863  12.093  0.00  0.00    +0.000 N 
ATOM    700  C8  A   B  67      11.234  12.202  13.420  0.00  0.00    +0.000 A 
ATOM    701  N7  A   B  67      11.646  11.222  14.188  0.00  0.00    +0.000 NA
ATOM    702  C5  A   B  67      11.853  10.166  13.307  0.00  0.00    +0.000 A 
ATOM    703  C6  A   B  67      12.292   8.844  13.494  0.00  0.00    +0.000 A 
ATOM    704  N6  A   B  67      12.611   8.336  14.692  0.00  0.00    +0.000 N 
ATOM    705  N1  A   B  67      12.389   8.057  12.402  0.00  0.00    +0.000 NA
ATOM    706  C2  A   B  67      12.066   8.565  11.206  0.00  0.00    +0.000 A 
ATOM    707  N3  A   B  67      11.640   9.786  10.906  0.00  0.00    +0.000 NA
ATOM    708  C4  A   B  67      11.555  10.547  12.016  0.00  0.00    +0.000 A 
ATOM    709  H   A   B  67      12.913   7.402  14.766  0.00  0.00    +0.000 HD
ATOM    710  H   A   B  67      12.543   8.897  15.498  0.00  0.00    +0.000 HD
ENDBRANCH 698 699
BRANCH 697 711
ATOM    711  O2' A   B  67       9.253  12.632   9.098  0.00  0.00    +0.000 OA
ATOM    712  H   A   B  67       9.485  13.562   8.953  0.00  0.00    +0.000 HD
ENDBRANCH 697 711
BRANCH 696 713
ATOM    713  O3' A   B  67       7.173  13.451  10.770  0.00  0.00    +0.000 OA
BRANCH 713 714
ATOM    714  P   A   B  68       5.889  12.746  11.438  0.00  0.00    +0.000 P 
ATOM    715  OP1 A   B  68       4.697  13.082  10.620  0.00  0.00    +0.000 OA
BRANCH 714 716
ATOM    716  OP2 A   B  68       5.887  13.033  12.899  0.00  0.00    +0.000 OA
ATOM    717  H   A   B  68       5.698  13.973  13.044  0.00  0.00    +0.000 HD
ENDBRANCH 714 716
BRANCH 714 718
ATOM    718  O5' A   B  68       6.204  11.192  11.248  0.00  0.00    +0.000 OA
BRANCH 718 719
ATOM    719  C5' A   B  68       6.266  10.607   9.957  0.00  0.00    +0.000 C 
BRANCH 719 720
ATOM    720  C4' A   B  68       6.865   9.219  10.004  0.00  0.00    +0.000 C 
ATOM    721  O4' A   B  68       8.187   9.276  10.593  0.00  0.00    +0.000 OA
ATOM    722  C3' A   B  68       6.124   8.207  10.864  0.00  0.00    +0.000 C 
ATOM    723  C2' A   B  68       7.217   7.198  11.178  0.00  0.00    +0.000 C 
ATOM    724  C1' A   B  68       8.417   8.114  11.368  0.00  0.00    +0.000 C 
BRANCH 724 725
ATOM    725  N9  A   B  68       8.568   8.513  12.779  0.00  0.00    +0.000 N 
ATOM    726  C8  A   B  68       8.308   9.739  13.341  0.00  0.00    +0.000 A 
ATOM    727  N7  A   B  68       8.536   9.790  14.632  0.00  0.00    +0.000 NA
ATOM    728  C5  A   B  68       8.976   8.509  14.945  0.00  0.00    +0.000 A 
ATOM    729  C6  A   B  68       9.382   7.913  16.152  0.00  0.00    +0.000 A 
ATOM    730  N6  A   B  68       9.404   8.561  17.324  0.00  0.00    +0.000 N 
ATOM    731  N1  A   B  68       9.762   6.616  16.114  0.00  0.00    +0.000 NA
ATOM    732  C2  A   B  68       9.734   5.967  14.941  0.00  0.00    +0.000 A 
ATOM    733  N3  A   B  68       9.374   6.420  13.744  0.00  0.00    +0.000 NA
ATOM    734  C4  A   B  68       9.000   7.713  13.816  0.00  0.00    +0.000 A 
ATOM    735  H   A   B  68       9.130   9.506  17.369  0.00  0.00    +0.000 HD
ATOM    736  H   A   B  68       9.694   8.093  18.140  0.00  0.00    +0.000 HD
ENDBRANCH 724 725
BRANCH 723 737
ATOM    737  O2' A   B  68       7.467   6.344  10.084  0.00  0.00    +0.000 OA
ATOM    738  H   A   B  68       7.689   6.875   9.303  0.00  0.00    +0.000 HD
ENDBRANCH 723 737
BRANCH 722 739
ATOM    739  O3' A   B  68       4.997   7.639  10.225  0.00  0.00    +0.000 OA
BRANCH 739 740
ATOM    740  P   A   B  69       3.627   7.453  11.028  0.00  0.00    +0.000 P 
ATOM    741  OP1 A   B  69       2.651   6.826  10.106  0.00  0.00    +0.000 OA
BRANCH 740 742
ATOM    742  OP2 A   B  69       3.280   8.722  11.723  0.00  0.00    +0.000 OA
ATOM    743  H   A   B  69       3.037   9.394  11.067  0.00  0.00    +0.000 HD
ENDBRANCH 740 742
BRANCH 740 744
ATOM    744  O5' A   B  69       4.020   6.377  12.140  0.00  0.00    +0.000 OA
BRANCH 744 745
ATOM    745  C5' A   B  69       4.428   5.067  11.789  0.00  0.00    +0.000 C 
BRANCH 745 746
ATOM    746  C4' A   B  69       4.992   4.324  12.977  0.00  0.00    +0.000 C 
ATOM    747  O4' A   B  69       6.106   5.066  13.530  0.00  0.00    +0.000 OA
ATOM    748  C3' A   B  69       4.045   4.142  14.150  0.00  0.00    +0.000 C 
ATOM    749  C2' A   B  69       5.009   3.956  15.313  0.00  0.00    +0.000 C 
ATOM    750  C1' A   B  69       6.126   4.926  14.939  0.00  0.00    +0.000 C 
BRANCH 750 751
ATOM    751  N9  A   B  69       5.927   6.256  15.547  0.00  0.00    +0.000 N 
ATOM    752  C8  A   B  69       5.561   7.422  14.920  0.00  0.00    +0.000 A 
ATOM    753  N7  A   B  69       5.462   8.450  15.728  0.00  0.00    +0.000 NA
ATOM    754  C5  A   B  69       5.782   7.931  16.975  0.00  0.00    +0.000 A 
ATOM    755  C6  A   B  69       5.862   8.510  18.253  0.00  0.00    +0.000 A 
ATOM    756  N6  A   B  69       5.610   9.803  18.495  0.00  0.00    +0.000 N 
ATOM    757  N1  A   B  69       6.212   7.709  19.283  0.00  0.00    +0.000 NA
ATOM    758  C2  A   B  69       6.463   6.413  19.039  0.00  0.00    +0.000 A 
ATOM    759  N3  A   B  69       6.420   5.758  17.882  0.00  0.00    +0.000 NA
ATOM    760  C4  A   B  69       6.068   6.584  16.879  0.00  0.00    +0.000 A 
ATOM    761  H   A   B  69       5.354  10.401  17.756  0.00  0.00    +0.000 HD
ATOM    762  H   A   B  69       5.681  10.155  19.412  0.00  0.00    +0.000 HD
ENDBRANCH 750 751
BRANCH 749 763
ATOM    763  O2' A   B  69       5.538   2.646  15.351  0.00  0.00    +0.000 OA
ATOM    764  H   A   B  69       5.968   2.446  14.505  0.00  0.00    +0.000 HD
ENDBRANCH 749 763
BRANCH 748 765
ATOM    765  O3' A   B  69       3.148   3.057  13.985  0.00  0.00    +0.000 OA
BRANCH 765 766
ATOM    766  P   A   B  70       1.591   3.243  14.338  0.00  0.00    +0.000 P 
ATOM    767  OP2 A   B  70       1.075   4.444  13.635  0.00  0.00    +0.000 OA
BRANCH 766 768
ATOM    768  OP1 A   B  70       0.937   1.929  14.130  0.00  0.00    +0.000 OA
ATOM    769  H   A   B  70       0.922   1.722  13.182  0.00  0.00    +0.000 HD
ENDBRANCH 766 768
BRANCH 766 770
ATOM    770  O5' A   B  70       1.597   3.547  15.903  0.00  0.00    +0.000 OA
BRANCH 770 771
ATOM    771  C5' A   B  70       2.050   2.581  16.837  0.00  0.00    +0.000 C 
BRANCH 771 772
ATOM    772  C4' A   B  70       2.193   3.179  18.216  0.00  0.00    +0.000 C 
ATOM    773  O4' A   B  70       3.157   4.261  18.176  0.00  0.00    +0.000 OA
ATOM    774  C3' A   B  70       0.936   3.816  18.785  0.00  0.00    +0.000 C 
ATOM    775  C2' A   B  70       1.500   4.814  19.784  0.00  0.00    +0.000 C 
ATOM    776  C1' A   B  70       2.757   5.294  19.056  0.00  0.00    +0.000 C 
BRANCH 776 777
ATOM    777  N9  A   B  70       2.513   6.514  18.265  0.00  0.00    +0.000 N 
ATOM    778  C8  A   B  70       2.360   6.615  16.906  0.00  0.00    +0.000 A 
ATOM    779  N7  A   B  70       2.159   7.839  16.485  0.00  0.00    +0.000 NA
ATOM    780  C5  A   B  70       2.179   8.602  17.643  0.00  0.00    +0.000 A 
ATOM    781  C6  A   B  70       2.028   9.981  17.875  0.00  0.00    +0.000 A 
ATOM    782  N1  A   B  70       2.104  10.413  19.150  0.00  0.00    +0.000 NA
ATOM    783  C2  A   B  70       2.319   9.516  20.123  0.00  0.00    +0.000 A 
ATOM    784  N3  A   B  70       2.478   8.198  20.027  0.00  0.00    +0.000 NA
ATOM    785  C4  A   B  70       2.397   7.800  18.746  0.00  0.00    +0.000 A 
BRANCH 781 786
ATOM    786  N6  A   B  70       1.811  10.875  16.899  0.00  0.00    +0.000 N 
ATOM    787  H   A   B  70       1.753  10.577  15.963  0.00  0.00    +0.000 HD
ATOM    788  H   A   B  70       1.710  11.829  17.119  0.00  0.00    +0.000 HD
ENDBRANCH 781 786
ENDBRANCH 776 777
BRANCH 775 789
ATOM    789  O2' A   B  70       1.888   4.186  20.992  0.00  0.00    +0.000 OA
ATOM    790  H   A   B  70       2.528   3.483  20.800  0.00  0.00    +0.000 HD
ENDBRANCH 775 789
BRANCH 774 791
ATOM    791  O3' A   B  70       0.055   2.873  19.370  0.00  0.00    +0.000 OA
BRANCH 791 792
ATOM    792  P   U   B  71      -1.535   2.998  19.116  0.00  0.00    +0.000 P 
ATOM    793  OP2 U   B  71      -1.769   3.245  17.669  0.00  0.00    +0.000 OA
BRANCH 792 794
ATOM    794  OP1 U   B  71      -2.172   1.832  19.777  0.00  0.00    +0.000 OA
ATOM    795  H   U   B  71      -1.931   1.020  19.304  0.00  0.00    +0.000 HD
ENDBRANCH 792 794
BRANCH 792 796
ATOM    796  O5' U   B  71      -1.952   4.310  19.918  0.00  0.00    +0.000 OA
BRANCH 796 797
ATOM    797  C5' U   B  71      -1.830   4.376  21.327  0.00  0.00    +0.000 C 
BRANCH 797 798
ATOM    798  C4' U   B  71      -2.054   5.781  21.836  0.00  0.00    +0.000 C 
ATOM    799  O4' U   B  71      -1.062   6.670  21.259  0.00  0.00    +0.000 OA
ATOM    800  C3' U   B  71      -3.380   6.409  21.466  0.00  0.00    +0.000 C 
ATOM    801  C2' U   B  71      -3.080   7.899  21.545  0.00  0.00    +0.000 C 
ATOM    802  C1' U   B  71      -1.622   7.953  21.063  0.00  0.00    +0.000 C 
BRANCH 802 803
ATOM    803  N1  U   B  71      -1.509   8.312  19.636  0.00  0.00    +0.000 N 
ATOM    804  C2  U   B  71      -1.500   9.660  19.312  0.00  0.00    +0.000 A 
ATOM    805  O2  U   B  71      -1.585  10.541  20.151  0.00  0.00    +0.000 OA
ATOM    806  N3  U   B  71      -1.386   9.943  17.971  0.00  0.00    +0.000 N 
ATOM    807  C4  U   B  71      -1.280   9.032  16.941  0.00  0.00    +0.000 A 
ATOM    808  O4  U   B  71      -1.183   9.443  15.780  0.00  0.00    +0.000 OA
ATOM    809  C5  U   B  71      -1.293   7.661  17.353  0.00  0.00    +0.000 A 
ATOM    810  C6  U   B  71      -1.403   7.358  18.655  0.00  0.00    +0.000 A 
ATOM    811  H   U   B  71      -1.379  10.895  17.720  0.00  0.00    +0.000 HD
ENDBRANCH 802 803
BRANCH 801 812
ATOM    812  O2' U   B  71      -3.134   8.371  22.881  0.00  0.00    +0.000 OA
ATOM    813  H   U   B  71      -2.519   7.860  23.430  0.00  0.00    +0.000 HD
ENDBRANCH 801 812
BRANCH 800 814
ATOM    814  O3' U   B  71      -4.429   6.013  22.338  0.00  0.00    +0.000 OA
BRANCH 814 815
ATOM    815  P   C   B  72      -5.651   5.102  21.802  0.00  0.00    +0.000 P 
ATOM    816  OP2 C   B  72      -5.072   3.858  21.221  0.00  0.00    +0.000 OA
BRANCH 815 817
ATOM    817  OP1 C   B  72      -6.657   5.004  22.891  0.00  0.00    +0.000 OA
ATOM    818  H   C   B  72      -7.403   4.460  22.594  0.00  0.00    +0.000 HD
ENDBRANCH 815 817
BRANCH 815 819
ATOM    819  O5' C   B  72      -6.290   5.945  20.613  0.00  0.00    +0.000 OA
BRANCH 819 820
ATOM    820  C5' C   B  72      -7.070   7.101  20.874  0.00  0.00    +0.000 C 
BRANCH 820 821
ATOM    821  C4' C   B  72      -7.836   7.512  19.642  0.00  0.00    +0.000 C 
ATOM    822  O4' C   B  72      -6.907   7.846  18.586  0.00  0.00    +0.000 OA
ATOM    823  C3' C   B  72      -8.719   6.425  19.052  0.00  0.00    +0.000 C 
ATOM    824  C2' C   B  72      -8.795   6.810  17.582  0.00  0.00    +0.000 C 
ATOM    825  C1' C   B  72      -7.411   7.419  17.336  0.00  0.00    +0.000 C 
BRANCH 825 826
ATOM    826  N1  C   B  72      -6.441   6.473  16.748  0.00  0.00    +0.000 N 
ATOM    827  C2  C   B  72      -6.545   6.137  15.391  0.00  0.00    +0.000 A 
ATOM    828  O2  C   B  72      -7.462   6.620  14.714  0.00  0.00    +0.000 OA
ATOM    829  N3  C   B  72      -5.640   5.286  14.848  0.00  0.00    +0.000 NA
ATOM    830  C4  C   B  72      -4.661   4.778  15.601  0.00  0.00    +0.000 A 
ATOM    831  N4  C   B  72      -3.793   3.942  15.015  0.00  0.00    +0.000 N 
ATOM    832  C5  C   B  72      -4.528   5.107  16.978  0.00  0.00    +0.000 A 
ATOM    833  C6  C   B  72      -5.425   5.953  17.504  0.00  0.00    +0.000 A 
ATOM    834  H   C   B  72      -3.892   3.719  14.061  0.00  0.00    +0.000 HD
ATOM    835  H   C   B  72      -3.057   3.551  15.538  0.00  0.00    +0.000 HD
ENDBRANCH 825 826
BRANCH 824 836
ATOM    836  O2' C   B  72      -9.775   7.801  17.355  0.00  0.00    +0.000 OA
ATOM    837  H   C   B  72      -9.586   8.575  17.908  0.00  0.00    +0.000 HD
ENDBRANCH 824 836
BRANCH 823 838
ATOM    838  O3' C   B  72      -9.996   6.380  19.680  0.00  0.00    +0.000 OA
BRANCH 838 839
ATOM    839  P   U   B  73     -10.623   4.985  20.144  0.00  0.00    +0.000 P 
ATOM    840  OP1 U   B  73     -11.911   5.271  20.824  0.00  0.00    +0.000 OA
BRANCH 839 841
ATOM    841  OP2 U   B  73      -9.570   4.215  20.850  0.00  0.00    +0.000 OA
ATOM    842  H   U   B  73      -8.798   4.117  20.271  0.00  0.00    +0.000 HD
ENDBRANCH 839 841
BRANCH 839 843
ATOM    843  O5' U   B  73     -10.941   4.252  18.763  0.00  0.00    +0.000 OA
BRANCH 843 844
ATOM    844  C5' U   B  73     -11.947   4.740  17.893  0.00  0.00    +0.000 C 
BRANCH 844 845
ATOM    845  C4' U   B  73     -11.934   4.001  16.574  0.00  0.00    +0.000 C 
ATOM    846  O4' U   B  73     -10.704   4.293  15.864  0.00  0.00    +0.000 OA
ATOM    847  C3' U   B  73     -11.963   2.490  16.673  0.00  0.00    +0.000 C 
ATOM    848  C2' U   B  73     -11.323   2.050  15.360  0.00  0.00    +0.000 C 
ATOM    849  C1' U   B  73     -10.288   3.160  15.129  0.00  0.00    +0.000 C 
BRANCH 849 850
ATOM    850  N1  U   B  73      -8.931   2.786  15.576  0.00  0.00    +0.000 N 
ATOM    851  C2  U   B  73      -8.084   2.221  14.636  0.00  0.00    +0.000 A 
ATOM    852  O2  U   B  73      -8.414   2.023  13.478  0.00  0.00    +0.000 OA
ATOM    853  N3  U   B  73      -6.828   1.899  15.098  0.00  0.00    +0.000 N 
ATOM    854  C4  U   B  73      -6.346   2.080  16.377  0.00  0.00    +0.000 A 
ATOM    855  O4  U   B  73      -5.190   1.737  16.643  0.00  0.00    +0.000 OA
ATOM    856  C5  U   B  73      -7.280   2.667  17.290  0.00  0.00    +0.000 A 
ATOM    857  C6  U   B  73      -8.508   2.993  16.867  0.00  0.00    +0.000 A 
ATOM    858  H   U   B  73      -6.209   1.497  14.447  0.00  0.00    +0.000 HD
ENDBRANCH 849 850
BRANCH 848 859
ATOM    859  O2' U   B  73     -12.258   2.075  14.301  0.00  0.00    +0.000 OA
ATOM    860  H   U   B  73     -12.642   2.963  14.230  0.00  0.00    +0.000 HD
ENDBRANCH 848 859
BRANCH 847 861
ATOM    861  O3' U   B  73     -13.281   1.988  16.849  0.00  0.00    +0.000 OA
BRANCH 861 862
ATOM    862  P   C   B  74     -13.678   1.099  18.121  0.00  0.00    +0.000 P 
ATOM    863  OP1 C   B  74     -15.152   0.960  18.129  0.00  0.00    +0.000 OA
BRANCH 862 864
ATOM    864  OP2 C   B  74     -12.983   1.632  19.313  0.00  0.00    +0.000 OA
ATOM    865  H   C   B  74     -12.028   1.659  19.145  0.00  0.00    +0.000 HD
ENDBRANCH 862 864
BRANCH 862 866
ATOM    866  O5' C   B  74     -13.051  -0.323  17.777  0.00  0.00    +0.000 OA
BRANCH 866 867
ATOM    867  C5' C   B  74     -13.532  -1.065  16.677  0.00  0.00    +0.000 C 
BRANCH 867 868
ATOM    868  C4' C   B  74     -12.963  -2.468  16.654  0.00  0.00    +0.000 C 
ATOM    869  O4' C   B  74     -11.567  -2.422  16.250  0.00  0.00    +0.000 OA
ATOM    870  C3' C   B  74     -13.002  -3.201  17.994  0.00  0.00    +0.000 C 
ATOM    871  C2' C   B  74     -11.581  -3.029  18.506  0.00  0.00    +0.000 C 
ATOM    872  C1' C   B  74     -10.776  -3.092  17.208  0.00  0.00    +0.000 C 
BRANCH 872 873
ATOM    873  N1  C   B  74      -9.458  -2.437  17.273  0.00  0.00    +0.000 N 
ATOM    874  C2  C   B  74      -8.338  -3.135  16.790  0.00  0.00    +0.000 A 
ATOM    875  O2  C   B  74      -8.494  -4.269  16.318  0.00  0.00    +0.000 OA
ATOM    876  N3  C   B  74      -7.118  -2.542  16.839  0.00  0.00    +0.000 NA
ATOM    877  C4  C   B  74      -6.995  -1.314  17.349  0.00  0.00    +0.000 A 
ATOM    878  N4  C   B  74      -5.772  -0.776  17.374  0.00  0.00    +0.000 N 
ATOM    879  C5  C   B  74      -8.117  -0.590  17.852  0.00  0.00    +0.000 A 
ATOM    880  C6  C   B  74      -9.317  -1.180  17.796  0.00  0.00    +0.000 A 
ATOM    881  H   C   B  74      -5.004  -1.283  17.025  0.00  0.00    +0.000 HD
ATOM    882  H   C   B  74      -5.639   0.128  17.742  0.00  0.00    +0.000 HD
ENDBRANCH 872 873
BRANCH 871 883
ATOM    883  O2' C   B  74     -11.156  -4.009  19.426  0.00  0.00    +0.000 OA
ATOM    884  H   C   B  74     -11.216  -4.886  19.015  0.00  0.00    +0.000 HD
ENDBRANCH 871 883
BRANCH 870 885
ATOM    885  O3' C   B  74     -13.259  -4.585  17.789  0.00  0.00    +0.000 OA
BRANCH 885 886
ATOM    886  P   C   B  75     -14.738  -5.195  17.795  0.00  0.00    +0.000 P 
ATOM    887  OP1 C   B  75     -14.819  -6.150  16.663  0.00  0.00    +0.000 OA
BRANCH 886 888
ATOM    888  OP2 C   B  75     -15.739  -4.116  17.913  0.00  0.00    +0.000 OA
ATOM    889  H   C   B  75     -15.750  -3.594  17.095  0.00  0.00    +0.000 HD
ENDBRANCH 886 888
BRANCH 886 890
ATOM    890  O5' C   B  75     -14.750  -6.027  19.153  0.00  0.00    +0.000 OA
BRANCH 890 891
ATOM    891  C5' C   B  75     -14.992  -5.393  20.389  0.00  0.00    +0.000 C 
BRANCH 891 892
ATOM    892  C4' C   B  75     -15.744  -6.295  21.341  0.00  0.00    +0.000 C 
ATOM    893  O4' C   B  75     -17.027  -6.650  20.750  0.00  0.00    +0.000 OA
ATOM    894  C3' C   B  75     -15.055  -7.612  21.667  0.00  0.00    +0.000 C 
ATOM    895  C2' C   B  75     -15.725  -8.588  20.710  0.00  0.00    +0.000 C 
ATOM    896  C1' C   B  75     -17.158  -8.047  20.713  0.00  0.00    +0.000 C 
BRANCH 896 897
ATOM    897  N1  C   B  75     -17.957  -8.423  19.528  0.00  0.00    +0.000 N 
ATOM    898  C2  C   B  75     -19.197  -9.042  19.728  0.00  0.00    +0.000 A 
ATOM    899  O2  C   B  75     -19.591  -9.245  20.885  0.00  0.00    +0.000 OA
ATOM    900  N3  C   B  75     -19.941  -9.394  18.651  0.00  0.00    +0.000 NA
ATOM    901  C4  C   B  75     -19.488  -9.147  17.424  0.00  0.00    +0.000 A 
ATOM    902  N4  C   B  75     -20.257  -9.510  16.396  0.00  0.00    +0.000 N 
ATOM    903  C5  C   B  75     -18.226  -8.529  17.197  0.00  0.00    +0.000 A 
ATOM    904  C6  C   B  75     -17.498  -8.181  18.267  0.00  0.00    +0.000 A 
ATOM    905  H   C   B  75     -19.956  -9.344  15.473  0.00  0.00    +0.000 HD
ATOM    906  H   C   B  75     -21.125  -9.944  16.560  0.00  0.00    +0.000 HD
ENDBRANCH 896 897
BRANCH 895 907
ATOM    907  O2' C   B  75     -15.677  -9.942  21.094  0.00  0.00    +0.000 OA
ATOM    908  H   C   B  75     -16.096 -10.047  21.962  0.00  0.00    +0.000 HD
ENDBRANCH 895 907
BRANCH 894 909
ATOM    909  O3' C   B  75     -15.370  -7.978  23.010  0.00  0.00    +0.000 OA
BRANCH 909 910
ATOM    910  P   A   B  76     -14.294  -8.361  24.081  0.00  0.00    +0.000 P 
ATOM    911  OP2 A   B  76     -12.958  -8.059  23.531  0.00  0.00    +0.000 OA
BRANCH 910 912
ATOM    912  OP1 A   B  76     -14.691  -7.804  25.408  0.00  0.00    +0.000 OA
ATOM    913  H   A   B  76     -14.586  -6.840  25.399  0.00  0.00    +0.000 HD
ENDBRANCH 910 912
BRANCH 910 914
ATOM    914  O5' A   B  76     -14.474  -9.944  24.117  0.00  0.00    +0.000 OA
BRANCH 914 915
ATOM    915  C5' A   B  76     -13.461 -10.783  24.600  0.00  0.00    +0.000 C 
BRANCH 915 916
ATOM    916  C4' A   B  76     -13.924 -12.223  24.598  0.00  0.00    +0.000 C 
ATOM    917  O4' A   B  76     -15.035 -12.369  25.523  0.00  0.00    +0.000 OA
ATOM    918  C3' A   B  76     -14.461 -12.738  23.276  0.00  0.00    +0.000 C 
ATOM    919  C2' A   B  76     -15.374 -13.874  23.715  0.00  0.00    +0.000 C 
ATOM    920  C1' A   B  76     -15.922 -13.359  25.053  0.00  0.00    +0.000 C 
BRANCH 920 921
ATOM    921  N9  A   B  76     -17.266 -12.775  24.946  0.00  0.00    +0.000 N 
ATOM    922  C8  A   B  76     -17.620 -11.536  24.498  0.00  0.00    +0.000 A 
ATOM    923  N7  A   B  76     -18.917 -11.316  24.540  0.00  0.00    +0.000 NA
ATOM    924  C5  A   B  76     -19.443 -12.492  25.047  0.00  0.00    +0.000 A 
ATOM    925  C6  A   B  76     -20.760 -12.897  25.334  0.00  0.00    +0.000 A 
ATOM    926  N6  A   B  76     -21.833 -12.122  25.136  0.00  0.00    +0.000 N 
ATOM    927  N1  A   B  76     -20.936 -14.138  25.837  0.00  0.00    +0.000 NA
ATOM    928  C2  A   B  76     -19.866 -14.914  26.037  0.00  0.00    +0.000 A 
ATOM    929  N3  A   B  76     -18.584 -14.638  25.802  0.00  0.00    +0.000 NA
ATOM    930  C4  A   B  76     -18.440 -13.399  25.305  0.00  0.00    +0.000 A 
ATOM    931  H   A   B  76     -21.724 -11.215  24.770  0.00  0.00    +0.000 HD
ATOM    932  H   A   B  76     -22.731 -12.459  25.356  0.00  0.00    +0.000 HD
ENDBRANCH 920 921
BRANCH 919 933
ATOM    933  O2' A   B  76     -14.641 -15.057  23.949  0.00  0.00    +0.000 OA
ATOM    934  H   A   B  76     -13.952 -14.885  24.610  0.00  0.00    +0.000 HD
ENDBRANCH 919 933
BRANCH 918 935
ATOM    935  O3' A   B  76     -13.428 -13.148  22.393  0.00  0.00    +0.000 OA
ATOM    936  H   A   B  76     -12.890 -13.833  22.820  0.00  0.00    +0.000 HD
ENDBRANCH 918 935
ENDBRANCH 915 916
ENDBRANCH 914 915
ENDBRANCH 910 914
ENDBRANCH 909 910
ENDBRANCH 894 909
ENDBRANCH 891 892
ENDBRANCH 890 891
ENDBRANCH 886 890
ENDBRANCH 885 886
ENDBRANCH 870 885
ENDBRANCH 867 868
ENDBRANCH 866 867
ENDBRANCH 862 866
ENDBRANCH 861 862
ENDBRANCH 847 861
ENDBRANCH 844 845
ENDBRANCH 843 844
ENDBRANCH 839 843
ENDBRANCH 838 839
ENDBRANCH 823 838
ENDBRANCH 820 821
ENDBRANCH 819 820
ENDBRANCH 815 819
ENDBRANCH 814 815
ENDBRANCH 800 814
ENDBRANCH 797 798
ENDBRANCH 796 797
ENDBRANCH 792 796
ENDBRANCH 791 792
ENDBRANCH 774 791
ENDBRANCH 771 772
ENDBRANCH 770 771
ENDBRANCH 766 770
ENDBRANCH 765 766
ENDBRANCH 748 765
ENDBRANCH 745 746
ENDBRANCH 744 745
ENDBRANCH 740 744
ENDBRANCH 739 740
ENDBRANCH 722 739
ENDBRANCH 719 720
ENDBRANCH 718 719
ENDBRANCH 714 718
ENDBRANCH 713 714
ENDBRANCH 696 713
ENDBRANCH 693 694
ENDBRANCH 692 693
ENDBRANCH 688 692
ENDBRANCH 687 688
ENDBRANCH 670 687
ENDBRANCH 667 668
ENDBRANCH 666 667
ENDBRANCH 662 666
ENDBRANCH 661 662
ENDBRANCH 646 661
ENDBRANCH 643 644
ENDBRANCH 642 643
ENDBRANCH 638 642
ENDBRANCH 637 638
ENDBRANCH 620 637
ENDBRANCH 617 618
ENDBRANCH 616 617
ENDBRANCH 612 616
ENDBRANCH 611 612
ENDBRANCH 597 611
ENDBRANCH 594 595
ENDBRANCH 593 594
ENDBRANCH 589 593
ENDBRANCH 588 589
ENDBRANCH 573 588
ENDBRANCH 570 571
ENDBRANCH 569 570
ENDBRANCH 565 569
ENDBRANCH 564 565
ENDBRANCH 547 564
ENDBRANCH 544 545
ENDBRANCH 543 544
ENDBRANCH 539 543
ENDBRANCH 538 539
ENDBRANCH 519 538
ENDBRANCH 516 517
ENDBRANCH 515 516
ENDBRANCH 511 515
ENDBRANCH 510 511
ENDBRANCH 493 510
ENDBRANCH 490 491
ENDBRANCH 489 490
ENDBRANCH 485 489
ENDBRANCH 484 485
ENDBRANCH 469 484
ENDBRANCH 466 467
ENDBRANCH 465 466
ENDBRANCH 461 465
ENDBRANCH 460 461
ENDBRANCH 443 460
ENDBRANCH 440 441
ENDBRANCH 439 440
ENDBRANCH 435 439
ENDBRANCH 434 435
ENDBRANCH 417 434
ENDBRANCH 414 415
ENDBRANCH 413 414
ENDBRANCH 409 413
ENDBRANCH 408 409
ENDBRANCH 391 408
ENDBRANCH 388 389
ENDBRANCH 387 388
ENDBRANCH 383 387
ENDBRANCH 382 383
ENDBRANCH 365 382
ENDBRANCH 362 363
ENDBRANCH 361 362
ENDBRANCH 357 361
ENDBRANCH 356 357
ENDBRANCH 339 356
ENDBRANCH 336 337
ENDBRANCH 335 336
ENDBRANCH 331 335
ENDBRANCH 330 331
ENDBRANCH 316 330
ENDBRANCH 313 314
ENDBRANCH 312 313
ENDBRANCH 308 312
ENDBRANCH 307 308
ENDBRANCH 293 307
ENDBRANCH 290 291
ENDBRANCH 289 290
ENDBRANCH 285 289
ENDBRANCH 284 285
ENDBRANCH 270 284
ENDBRANCH 267 268
ENDBRANCH 266 267
ENDBRANCH 262 266
ENDBRANCH 261 262
ENDBRANCH 247 261
ENDBRANCH 244 245
ENDBRANCH 243 244
ENDBRANCH 239 243
ENDBRANCH 238 239
ENDBRANCH 221 238
ENDBRANCH 218 219
ENDBRANCH 217 218
ENDBRANCH 213 217
ENDBRANCH 212 213
ENDBRANCH 198 212
ENDBRANCH 195 196
ENDBRANCH 194 195
ENDBRANCH 190 194
ENDBRANCH 189 190
ENDBRANCH 175 189
ENDBRANCH 172 173
ENDBRANCH 171 172
ENDBRANCH 167 171
ENDBRANCH 166 167
ENDBRANCH 152 166
ENDBRANCH 149 150
ENDBRANCH 148 149
ENDBRANCH 144 148
ENDBRANCH 143 144
ENDBRANCH 128 143
ENDBRANCH 125 126
ENDBRANCH 124 125
ENDBRANCH 120 124
ENDBRANCH 119 120
ENDBRANCH 102 119
ENDBRANCH  99 100
ENDBRANCH  98  99
ENDBRANCH  94  98
ENDBRANCH  93  94
ENDBRANCH  79  93
ENDBRANCH  76  77
ENDBRANCH  75  76
ENDBRANCH  71  75
ENDBRANCH  70  71
ENDBRANCH  56  70
ENDBRANCH  53  54
ENDBRANCH  52  53
ENDBRANCH  48  52
ENDBRANCH  47  48
ENDBRANCH  32  47
ENDBRANCH  29  30
ENDBRANCH  28  29
ENDBRANCH  24  28
ENDBRANCH  23  24
ENDBRANCH   9  23
ENDBRANCH   6   7
ENDBRANCH   5   6
ENDBRANCH   1   5
BRANCH   1 937
ATOM    937  O3' U   B  38       2.751 -45.044   7.957  0.00  0.00    +0.000 OA
BRANCH 937 940
ATOM    938  C4' U   B  38       3.459 -42.740   8.364  0.00  0.00    +0.000 C 
ATOM    939  O4' U   B  38       4.728 -42.132   8.720  0.00  0.00    +0.000 OA
ATOM    940  C3' U   B  38       3.660 -44.213   8.661  0.00  0.00    +0.000 C 
ATOM    941  C2' U   B  38       5.112 -44.432   8.257  0.00  0.00    +0.000 C 
ATOM    942  C1' U   B  38       5.749 -43.109   8.703  0.00  0.00    +0.000 C 
BRANCH 942 943
ATOM    943  N1  U   B  38       6.341 -43.203  10.053  0.00  0.00    +0.000 N 
ATOM    944  C2  U   B  38       7.601 -43.763  10.161  0.00  0.00    +0.000 A 
ATOM    945  O2  U   B  38       8.230 -44.174   9.198  0.00  0.00    +0.000 OA
ATOM    946  N3  U   B  38       8.104 -43.823  11.439  0.00  0.00    +0.000 N 
ATOM    947  C4  U   B  38       7.488 -43.391  12.596  0.00  0.00    +0.000 A 
ATOM    948  O4  U   B  38       8.070 -43.515  13.673  0.00  0.00    +0.000 OA
ATOM    949  C5  U   B  38       6.189 -42.826  12.403  0.00  0.00    +0.000 A 
ATOM    950  C6  U   B  38       5.675 -42.753  11.168  0.00  0.00    +0.000 A 
ATOM    951  H   U   B  38       9.001 -44.217  11.540  0.00  0.00    +0.000 HD
ENDBRANCH 942 943
BRANCH 941 952
ATOM    952  O2' U   B  38       5.248 -44.552   6.853  0.00  0.00    +0.000 OA
ATOM    953  H   U   B  38       4.874 -43.767   6.424  0.00  0.00    +0.000 HD
ENDBRANCH 941 952
BRANCH 938 954
ATOM    954  C5' U   B  38       2.336 -42.062   9.116  0.00  0.00    +0.000 C 
BRANCH 954 955
ATOM    955  O5' U   B  38       2.495 -42.194  10.518  0.00  0.00    +0.000 OA
BRANCH 955 956
ATOM    956  P   U   B  38       1.597 -41.350  11.535  0.00  0.00    +0.000 P 
ATOM    957  OP1 U   B  38       0.176 -41.523  11.157  0.00  0.00    +0.000 OA
BRANCH 956 958
ATOM    958  OP2 U   B  38       2.047 -41.668  12.913  0.00  0.00    +0.000 OA
ATOM    959  H   U   B  38       1.808 -42.583  13.128  0.00  0.00    +0.000 HD
ENDBRANCH 956 958
BRANCH 956 960
ATOM    960  O3' A   B  37       2.001 -39.833  11.196  0.00  0.00    +0.000 OA
BRANCH 960 963
ATOM    961  C4' A   B  37       3.322 -37.909  11.953  0.00  0.00    +0.000 C 
ATOM    962  O4' A   B  37       4.687 -37.483  11.711  0.00  0.00    +0.000 OA
ATOM    963  C3' A   B  37       3.306 -39.361  11.496  0.00  0.00    +0.000 C 
ATOM    964  C2' A   B  37       4.226 -39.327  10.285  0.00  0.00    +0.000 C 
ATOM    965  C1' A   B  37       5.285 -38.321  10.740  0.00  0.00    +0.000 C 
BRANCH 965 966
ATOM    966  N9  A   B  37       6.458 -38.977  11.339  0.00  0.00    +0.000 N 
ATOM    967  C8  A   B  37       6.786 -39.084  12.665  0.00  0.00    +0.000 A 
ATOM    968  N7  A   B  37       7.906 -39.733  12.884  0.00  0.00    +0.000 NA
ATOM    969  C5  A   B  37       8.346 -40.079  11.615  0.00  0.00    +0.000 A 
ATOM    970  C6  A   B  37       9.477 -40.778  11.160  0.00  0.00    +0.000 A 
ATOM    971  N6  A   B  37      10.415 -41.279  11.975  0.00  0.00    +0.000 N 
ATOM    972  N1  A   B  37       9.618 -40.945   9.830  0.00  0.00    +0.000 NA
ATOM    973  C2  A   B  37       8.679 -40.445   9.014  0.00  0.00    +0.000 A 
ATOM    974  N3  A   B  37       7.573 -39.771   9.323  0.00  0.00    +0.000 NA
ATOM    975  C4  A   B  37       7.466 -39.620  10.656  0.00  0.00    +0.000 A 
ATOM    976  H   A   B  37      11.187 -41.761  11.599  0.00  0.00    +0.000 HD
ATOM    977  H   A   B  37      10.332 -41.166  12.949  0.00  0.00    +0.000 HD
ENDBRANCH 965 966
BRANCH 964 978
ATOM    978  O2' A   B  37       3.565 -38.814   9.145  0.00  0.00    +0.000 OA
ATOM    979  H   A   B  37       3.211 -37.934   9.346  0.00  0.00    +0.000 HD
ENDBRANCH 964 978
BRANCH 961 980
ATOM    980  C5' A   B  37       2.955 -37.666  13.398  0.00  0.00    +0.000 C 
BRANCH 980 981
ATOM    981  O5' A   B  37       3.786 -38.412  14.271  0.00  0.00    +0.000 OA
BRANCH 981 982
ATOM    982  P   A   B  37       3.712 -38.191  15.846  0.00  0.00    +0.000 P 
ATOM    983  OP1 A   B  37       2.286 -38.209  16.244  0.00  0.00    +0.000 OA
BRANCH 982 984
ATOM    984  OP2 A   B  37       4.675 -39.129  16.484  0.00  0.00    +0.000 OA
ATOM    985  H   A   B  37       5.560 -38.987  16.112  0.00  0.00    +0.000 HD
ENDBRANCH 982 984
BRANCH 982 986
ATOM    986  O3' U   B  36       4.268 -36.685  16.048  0.00  0.00    +0.000 OA
BRANCH 986 989
ATOM    987  C4' U   B  36       6.116 -35.234  16.742  0.00  0.00    +0.000 C 
ATOM    988  O4' U   B  36       7.345 -34.806  16.094  0.00  0.00    +0.000 OA
ATOM    989  C3' U   B  36       5.649 -36.407  15.900  0.00  0.00    +0.000 C 
ATOM    990  C2' U   B  36       6.024 -35.963  14.490  0.00  0.00    +0.000 C 
ATOM    991  C1' U   B  36       7.359 -35.252  14.749  0.00  0.00    +0.000 C 
BRANCH 991 992
ATOM    992  N1  U   B  36       8.514 -36.157  14.558  0.00  0.00    +0.000 N 
ATOM    993  C2  U   B  36       8.922 -36.403  13.256  0.00  0.00    +0.000 A 
ATOM    994  O2  U   B  36       8.370 -35.914  12.282  0.00  0.00    +0.000 OA
ATOM    995  N3  U   B  36      10.000 -37.247  13.132  0.00  0.00    +0.000 N 
ATOM    996  C4  U   B  36      10.698 -37.858  14.153  0.00  0.00    +0.000 A 
ATOM    997  O4  U   B  36      11.650 -38.593  13.879  0.00  0.00    +0.000 OA
ATOM    998  C5  U   B  36      10.217 -37.555  15.469  0.00  0.00    +0.000 A 
ATOM    999  C6  U   B  36       9.166 -36.735  15.618  0.00  0.00    +0.000 A 
ATOM   1000  H   U   B  36      10.307 -37.436  12.216  0.00  0.00    +0.000 HD
ENDBRANCH 991 992
BRANCH 9901001
ATOM   1001  O2' U   B  36       5.103 -35.026  13.977  0.00  0.00    +0.000 OA
ATOM   1002  H   U   B  36       5.040 -34.270  14.582  0.00  0.00    +0.000 HD
ENDBRANCH 9901001
BRANCH 9871003
ATOM   1003  C5' U   B  36       6.374 -35.525  18.204  0.00  0.00    +0.000 C 
BRANCH10031004
ATOM   1004  O5' U   B  36       7.359 -36.532  18.371  0.00  0.00    +0.000 OA
BRANCH10041005
ATOM   1005  P   U   B  36       7.949 -36.873  19.815  0.00  0.00    +0.000 P 
ATOM   1006  OP2 U   B  36       8.934 -37.979  19.658  0.00  0.00    +0.000 OA
BRANCH10051007
ATOM   1007  OP1 U   B  36       6.816 -37.022  20.758  0.00  0.00    +0.000 OA
ATOM   1008  H   U   B  36       6.311 -37.819  20.533  0.00  0.00    +0.000 HD
ENDBRANCH10051007
BRANCH10051009
ATOM   1009  O3' A   B  35       8.750 -35.544  20.229  0.00  0.00    +0.000 OA
BRANCH10091012
ATOM   1010  C4' A   B  35      10.949 -34.452  20.313  0.00  0.00    +0.000 C 
ATOM   1011  O4' A   B  35      11.723 -33.705  19.337  0.00  0.00    +0.000 OA
ATOM   1012  C3' A   B  35       9.879 -35.131  19.476  0.00  0.00    +0.000 C 
ATOM   1013  C2' A   B  35       9.553 -34.059  18.446  0.00  0.00    +0.000 C 
ATOM   1014  C1' A   B  35      10.942 -33.478  18.177  0.00  0.00    +0.000 C 
BRANCH10141015
ATOM   1015  N9  A   B  35      11.588 -34.135  17.027  0.00  0.00    +0.000 N 
ATOM   1016  C8  A   B  35      12.597 -35.066  17.028  0.00  0.00    +0.000 A 
ATOM   1017  N7  A   B  35      12.948 -35.459  15.828  0.00  0.00    +0.000 NA
ATOM   1018  C5  A   B  35      12.117 -34.743  14.978  0.00  0.00    +0.000 A 
ATOM   1019  C6  A   B  35      11.986 -34.707  13.580  0.00  0.00    +0.000 A 
ATOM   1020  N1  A   B  35      11.055 -33.882  13.054  0.00  0.00    +0.000 NA
ATOM   1021  C2  A   B  35      10.306 -33.146  13.881  0.00  0.00    +0.000 A 
ATOM   1022  N3  A   B  35      10.334 -33.090  15.212  0.00  0.00    +0.000 NA
ATOM   1023  C4  A   B  35      11.274 -33.922  15.703  0.00  0.00    +0.000 A 
BRANCH10191024
ATOM   1024  N6  A   B  35      12.732 -35.450  12.749  0.00  0.00    +0.000 N 
ATOM   1025  H   A   B  35      12.598 -35.385  11.776  0.00  0.00    +0.000 HD
ATOM   1026  H   A   B  35      13.414 -36.060  13.112  0.00  0.00    +0.000 HD
ENDBRANCH10191024
ENDBRANCH10141015
BRANCH10131027
ATOM   1027  O2' A   B  35       8.734 -33.045  18.995  0.00  0.00    +0.000 OA
ATOM   1028  H   A   B  35       9.166 -32.669  19.778  0.00  0.00    +0.000 HD
ENDBRANCH10131027
BRANCH10101029
ATOM   1029  C5' A   B  35      11.858 -35.365  21.105  0.00  0.00    +0.000 C 
BRANCH10291030
ATOM   1030  O5' A   B  35      12.626 -36.204  20.256  0.00  0.00    +0.000 OA
BRANCH10301031
ATOM   1031  P   A   B  35      13.939 -36.932  20.803  0.00  0.00    +0.000 P 
ATOM   1032  OP2 A   B  35      14.493 -37.765  19.700  0.00  0.00    +0.000 OA
BRANCH10311033
ATOM   1033  OP1 A   B  35      13.606 -37.567  22.100  0.00  0.00    +0.000 OA
ATOM   1034  H   A   B  35      12.988 -38.300  21.952  0.00  0.00    +0.000 HD
ENDBRANCH10311033
BRANCH10311035
ATOM   1035  O3' A   B  34      14.961 -35.729  21.096  0.00  0.00    +0.000 OA
BRANCH10351038
ATOM   1036  C4' A   B  34      16.985 -34.548  20.367  0.00  0.00    +0.000 C 
ATOM   1037  O4' A   B  34      17.235 -33.527  19.366  0.00  0.00    +0.000 OA
ATOM   1038  C3' A   B  34      15.599 -35.062  20.021  0.00  0.00    +0.000 C 
ATOM   1039  C2' A   B  34      14.886 -33.790  19.587  0.00  0.00    +0.000 C 
ATOM   1040  C1' A   B  34      16.006 -33.065  18.835  0.00  0.00    +0.000 C 
BRANCH10401041
ATOM   1041  N9  A   B  34      15.972 -33.356  17.392  0.00  0.00    +0.000 N 
ATOM   1042  C8  A   B  34      16.719 -34.269  16.689  0.00  0.00    +0.000 A 
ATOM   1043  N7  A   B  34      16.451 -34.288  15.404  0.00  0.00    +0.000 NA
ATOM   1044  C5  A   B  34      15.461 -33.327  15.248  0.00  0.00    +0.000 A 
ATOM   1045  C6  A   B  34      14.750 -32.866  14.127  0.00  0.00    +0.000 A 
ATOM   1046  N1  A   B  34      13.829 -31.897  14.318  0.00  0.00    +0.000 NA
ATOM   1047  C2  A   B  34      13.638 -31.425  15.556  0.00  0.00    +0.000 A 
ATOM   1048  N3  A   B  34      14.244 -31.776  16.690  0.00  0.00    +0.000 NA
ATOM   1049  C4  A   B  34      15.155 -32.744  16.463  0.00  0.00    +0.000 A 
BRANCH10451050
ATOM   1050  N6  A   B  34      14.938 -33.340  12.886  0.00  0.00    +0.000 N 
ATOM   1051  H   A   B  34      14.411 -32.980  12.136  0.00  0.00    +0.000 HD
ATOM   1052  H   A   B  34      15.603 -34.048  12.725  0.00  0.00    +0.000 HD
ENDBRANCH10451050
ENDBRANCH10401041
BRANCH10391053
ATOM   1053  O2' A   B  34      14.504 -33.004  20.701  0.00  0.00    +0.000 OA
ATOM   1054  H   A   B  34      15.285 -32.809  21.242  0.00  0.00    +0.000 HD
ENDBRANCH10391053
BRANCH10361055
ATOM   1055  C5' A   B  34      18.099 -35.571  20.352  0.00  0.00    +0.000 C 
BRANCH10551056
ATOM   1056  O5' A   B  34      18.162 -36.256  19.111  0.00  0.00    +0.000 OA
BRANCH10561057
ATOM   1057  P   A   B  34      19.403 -37.193  18.761  0.00  0.00    +0.000 P 
ATOM   1058  OP2 A   B  34      19.163 -37.796  17.423  0.00  0.00    +0.000 OA
BRANCH10571059
ATOM   1059  OP1 A   B  34      19.664 -38.074  19.925  0.00  0.00    +0.000 OA
ATOM   1060  H   A   B  34      20.418 -38.653  19.730  0.00  0.00    +0.000 HD
ENDBRANCH10571059
BRANCH10571061
ATOM   1061  O3' U   B  33      20.636 -36.166  18.644  0.00  0.00    +0.000 OA
BRANCH10611064
ATOM   1062  C4' U   B  33      22.205 -35.071  17.112  0.00  0.00    +0.000 C 
ATOM   1063  O4' U   B  33      22.128 -33.874  16.289  0.00  0.00    +0.000 OA
ATOM   1064  C3' U   B  33      20.761 -35.344  17.494  0.00  0.00    +0.000 C 
ATOM   1065  C2' U   B  33      20.208 -33.938  17.689  0.00  0.00    +0.000 C 
ATOM   1066  C1' U   B  33      20.930 -33.176  16.567  0.00  0.00    +0.000 C 
BRANCH10661067
ATOM   1067  N1  U   B  33      20.121 -33.111  15.326  0.00  0.00    +0.000 N 
ATOM   1068  C2  U   B  33      19.178 -32.098  15.235  0.00  0.00    +0.000 A 
ATOM   1069  O2  U   B  33      18.997 -31.276  16.118  0.00  0.00    +0.000 OA
ATOM   1070  N3  U   B  33      18.452 -32.079  14.064  0.00  0.00    +0.000 N 
ATOM   1071  C4  U   B  33      18.572 -32.954  13.002  0.00  0.00    +0.000 A 
ATOM   1072  O4  U   B  33      17.847 -32.812  12.013  0.00  0.00    +0.000 OA
ATOM   1073  C5  U   B  33      19.567 -33.969  13.174  0.00  0.00    +0.000 A 
ATOM   1074  C6  U   B  33      20.288 -34.013  14.304  0.00  0.00    +0.000 A 
ATOM   1075  H   U   B  33      17.777 -31.368  13.975  0.00  0.00    +0.000 HD
ENDBRANCH10661067
BRANCH10651076
ATOM   1076  O2' U   B  33      20.599 -33.392  18.934  0.00  0.00    +0.000 OA
ATOM   1077  H   U   B  33      21.566 -33.405  19.003  0.00  0.00    +0.000 HD
ENDBRANCH10651076
BRANCH10621078
ATOM   1078  C5' U   B  33      22.906 -36.174  16.352  0.00  0.00    +0.000 C 
BRANCH10781079
ATOM   1079  O5' U   B  33      22.162 -36.587  15.216  0.00  0.00    +0.000 OA
BRANCH10791080
ATOM   1080  P   U   B  33      22.785 -37.592  14.142  0.00  0.00    +0.000 P 
ATOM   1081  OP2 U   B  33      21.773 -37.807  13.069  0.00  0.00    +0.000 OA
BRANCH10801082
ATOM   1082  OP1 U   B  33      23.348 -38.758  14.867  0.00  0.00    +0.000 OA
ATOM   1083  H   U   B  33      23.732 -39.381  14.230  0.00  0.00    +0.000 HD
ENDBRANCH10801082
BRANCH10801084
ATOM   1084  O3' A   B  32      24.008 -36.766  13.528  0.00  0.00    +0.000 OA
BRANCH10841087
ATOM   1085  C4' A   B  32      24.875 -35.601  11.557  0.00  0.00    +0.000 C 
ATOM   1086  O4' A   B  32      24.757 -34.238  11.071  0.00  0.00    +0.000 OA
ATOM   1087  C3' A   B  32      23.779 -35.713  12.603  0.00  0.00    +0.000 C 
ATOM   1088  C2' A   B  32      23.792 -34.331  13.241  0.00  0.00    +0.000 C 
ATOM   1089  C1' A   B  32      24.078 -33.440  12.023  0.00  0.00    +0.000 C 
BRANCH10891090
ATOM   1090  N9  A   B  32      22.841 -32.925  11.403  0.00  0.00    +0.000 N 
ATOM   1091  C8  A   B  32      22.182 -33.409  10.300  0.00  0.00    +0.000 A 
ATOM   1092  N7  A   B  32      21.103 -32.724   9.990  0.00  0.00    +0.000 NA
ATOM   1093  C5  A   B  32      21.046 -31.724  10.950  0.00  0.00    +0.000 A 
ATOM   1094  C6  A   B  32      20.141 -30.674  11.175  0.00  0.00    +0.000 A 
ATOM   1095  N1  A   B  32      20.373 -29.856  12.222  0.00  0.00    +0.000 NA
ATOM   1096  C2  A   B  32      21.447 -30.081  12.991  0.00  0.00    +0.000 A 
ATOM   1097  N3  A   B  32      22.372 -31.036  12.882  0.00  0.00    +0.000 NA
ATOM   1098  C4  A   B  32      22.109 -31.835  11.829  0.00  0.00    +0.000 A 
BRANCH10941099
ATOM   1099  N6  A   B  32      19.063 -30.446  10.409  0.00  0.00    +0.000 N 
ATOM   1100  H   A   B  32      18.874 -31.030   9.639  0.00  0.00    +0.000 HD
ATOM   1101  H   A   B  32      18.462 -29.695  10.617  0.00  0.00    +0.000 HD
ENDBRANCH10941099
ENDBRANCH10891090
BRANCH10881102
ATOM   1102  O2' A   B  32      24.859 -34.199  14.164  0.00  0.00    +0.000 OA
ATOM   1103  H   A   B  32      25.698 -34.395  13.719  0.00  0.00    +0.000 HD
ENDBRANCH10881102
BRANCH10851104
ATOM   1104  C5' A   B  32      24.778 -36.569  10.399  0.00  0.00    +0.000 C 
BRANCH11041105
ATOM   1105  O5' A   B  32      23.505 -36.498   9.772  0.00  0.00    +0.000 OA
BRANCH11051106
ATOM   1106  P   A   B  32      23.221 -37.275   8.404  0.00  0.00    +0.000 P 
ATOM   1107  OP2 A   B  32      21.821 -36.974   7.987  0.00  0.00    +0.000 OA
BRANCH11061108
ATOM   1108  OP1 A   B  32      23.650 -38.685   8.573  0.00  0.00    +0.000 OA
ATOM   1109  H   A   B  32      23.485 -39.174   7.751  0.00  0.00    +0.000 HD
ENDBRANCH11061108
BRANCH11061110
ATOM   1110  O3' A   B  31      24.229 -36.588   7.367  0.00  0.00    +0.000 OA
BRANCH11101113
ATOM   1111  C4' A   B  31      24.518 -35.099   5.445  0.00  0.00    +0.000 C 
ATOM   1112  O4' A   B  31      24.583 -33.657   5.299  0.00  0.00    +0.000 OA
ATOM   1113  C3' A   B  31      23.949 -35.300   6.838  0.00  0.00    +0.000 C 
ATOM   1114  C2' A   B  31      24.598 -34.167   7.621  0.00  0.00    +0.000 C 
ATOM   1115  C1' A   B  31      24.603 -33.043   6.575  0.00  0.00    +0.000 C 
BRANCH11151116
ATOM   1116  N9  A   B  31      23.425 -32.161   6.694  0.00  0.00    +0.000 N 
ATOM   1117  C8  A   B  31      22.289 -32.154   5.923  0.00  0.00    +0.000 A 
ATOM   1118  N7  A   B  31      21.415 -31.239   6.282  0.00  0.00    +0.000 NA
ATOM   1119  C5  A   B  31      22.016 -30.602   7.360  0.00  0.00    +0.000 A 
ATOM   1120  C6  A   B  31      21.606 -29.544   8.188  0.00  0.00    +0.000 A 
ATOM   1121  N6  A   B  31      20.433 -28.910   8.051  0.00  0.00    +0.000 N 
ATOM   1122  N1  A   B  31      22.442 -29.152   9.173  0.00  0.00    +0.000 NA
ATOM   1123  C2  A   B  31      23.614 -29.784   9.315  0.00  0.00    +0.000 A 
ATOM   1124  N3  A   B  31      24.113 -30.794   8.599  0.00  0.00    +0.000 NA
ATOM   1125  C4  A   B  31      23.252 -31.159   7.626  0.00  0.00    +0.000 A 
ATOM   1126  H   A   B  31      19.808 -29.179   7.340  0.00  0.00    +0.000 HD
ATOM   1127  H   A   B  31      20.196 -28.175   8.662  0.00  0.00    +0.000 HD
ENDBRANCH11151116
BRANCH11141128
ATOM   1128  O2' A   B  31      25.935 -34.480   7.966  0.00  0.00    +0.000 OA
ATOM   1129  H   A   B  31      26.435 -34.692   7.162  0.00  0.00    +0.000 HD
ENDBRANCH11141128
BRANCH11111130
ATOM   1130  C5' A   B  31      23.719 -35.698   4.308  0.00  0.00    +0.000 C 
BRANCH11301131
ATOM   1131  O5' A   B  31      22.378 -35.225   4.307  0.00  0.00    +0.000 OA
BRANCH11311132
ATOM   1132  P   A   B  31      21.399 -35.541   3.085  0.00  0.00    +0.000 P 
ATOM   1133  OP1 A   B  31      21.435 -37.002   2.826  0.00  0.00    +0.000 OA
BRANCH11321134
ATOM   1134  OP2 A   B  31      20.096 -34.869   3.355  0.00  0.00    +0.000 OA
ATOM   1135  H   A   B  31      19.483 -35.047   2.625  0.00  0.00    +0.000 HD
ENDBRANCH11321134
BRANCH11321136
ATOM   1136  O3' A   B  30      22.106 -34.814   1.844  0.00  0.00    +0.000 OA
BRANCH11361139
ATOM   1137  C4' A   B  30      22.133 -32.941   0.262  0.00  0.00    +0.000 C 
ATOM   1138  O4' A   B  30      22.535 -31.551   0.366  0.00  0.00    +0.000 OA
ATOM   1139  C3' A   B  30      22.040 -33.403   1.706  0.00  0.00    +0.000 C 
ATOM   1140  C2' A   B  30      23.213 -32.673   2.349  0.00  0.00    +0.000 C 
ATOM   1141  C1' A   B  30      23.170 -31.327   1.613  0.00  0.00    +0.000 C 
BRANCH11411142
ATOM   1142  N9  A   B  30      22.408 -30.309   2.363  0.00  0.00    +0.000 N 
ATOM   1143  C8  A   B  30      21.128 -29.862   2.137  0.00  0.00    +0.000 A 
ATOM   1144  N7  A   B  30      20.737 -28.941   2.990  0.00  0.00    +0.000 NA
ATOM   1145  C5  A   B  30      21.828 -28.770   3.833  0.00  0.00    +0.000 A 
ATOM   1146  C6  A   B  30      22.056 -27.942   4.943  0.00  0.00    +0.000 A 
ATOM   1147  N6  A   B  30      21.145 -27.084   5.422  0.00  0.00    +0.000 N 
ATOM   1148  N1  A   B  30      23.255 -28.020   5.558  0.00  0.00    +0.000 NA
ATOM   1149  C2  A   B  30      24.167 -28.879   5.085  0.00  0.00    +0.000 A 
ATOM   1150  N3  A   B  30      24.074 -29.713   4.047  0.00  0.00    +0.000 NA
ATOM   1151  C4  A   B  30      22.864 -29.608   3.458  0.00  0.00    +0.000 A 
ATOM   1152  H   A   B  30      20.264 -27.010   4.990  0.00  0.00    +0.000 HD
ATOM   1153  H   A   B  30      21.357 -26.528   6.206  0.00  0.00    +0.000 HD
ENDBRANCH11411142
BRANCH11401154
ATOM   1154  O2' A   B  30      24.442 -33.314   2.060  0.00  0.00    +0.000 OA
ATOM   1155  H   A   B  30      24.551 -33.386   1.099  0.00  0.00    +0.000 HD
ENDBRANCH11401154
BRANCH11371156
ATOM   1156  C5' A   B  30      20.867 -33.060  -0.561  0.00  0.00    +0.000 C 
BRANCH11561157
ATOM   1157  O5' A   B  30      19.792 -32.339   0.024  0.00  0.00    +0.000 OA
BRANCH11571158
ATOM   1158  P   A   B  30      18.427 -32.115  -0.779  0.00  0.00    +0.000 P 
ATOM   1159  OP1 A   B  30      17.965 -33.429  -1.289  0.00  0.00    +0.000 OA
BRANCH11581160
ATOM   1160  OP2 A   B  30      17.523 -31.294   0.073  0.00  0.00    +0.000 OA
ATOM   1161  H   A   B  30      16.686 -31.144  -0.394  0.00  0.00    +0.000 HD
ENDBRANCH11581160
BRANCH11581162
ATOM   1162  O3' A   B  29      18.881 -31.238  -2.047  0.00  0.00    +0.000 OA
BRANCH11621165
ATOM   1163  C4' A   B  29      18.968 -29.041  -3.140  0.00  0.00    +0.000 C 
ATOM   1164  O4' A   B  29      19.779 -27.853  -2.933  0.00  0.00    +0.000 OA
ATOM   1165  C3' A   B  29      19.204 -29.866  -1.885  0.00  0.00    +0.000 C 
ATOM   1166  C2' A   B  29      20.683 -29.615  -1.615  0.00  0.00    +0.000 C 
ATOM   1167  C1' A   B  29      20.813 -28.137  -2.006  0.00  0.00    +0.000 C 
BRANCH11671168
ATOM   1168  N9  A   B  29      20.665 -27.246  -0.840  0.00  0.00    +0.000 N 
ATOM   1169  C8  A   B  29      19.570 -26.511  -0.462  0.00  0.00    +0.000 A 
ATOM   1170  N7  A   B  29      19.761 -25.815   0.638  0.00  0.00    +0.000 NA
ATOM   1171  C5  A   B  29      21.065 -26.113   1.009  0.00  0.00    +0.000 A 
ATOM   1172  C6  A   B  29      21.870 -25.700   2.081  0.00  0.00    +0.000 A 
ATOM   1173  N6  A   B  29      21.454 -24.850   3.032  0.00  0.00    +0.000 N 
ATOM   1174  N1  A   B  29      23.127 -26.186   2.155  0.00  0.00    +0.000 NA
ATOM   1175  C2  A   B  29      23.544 -27.036   1.210  0.00  0.00    +0.000 A 
ATOM   1176  N3  A   B  29      22.882 -27.503   0.148  0.00  0.00    +0.000 NA
ATOM   1177  C4  A   B  29      21.633 -26.994   0.107  0.00  0.00    +0.000 A 
ATOM   1178  H   A   B  29      20.541 -24.483   2.999  0.00  0.00    +0.000 HD
ATOM   1179  H   A   B  29      22.062 -24.594   3.763  0.00  0.00    +0.000 HD
ENDBRANCH11671168
BRANCH11661180
ATOM   1180  O2' A   B  29      21.505 -30.387  -2.474  0.00  0.00    +0.000 OA
ATOM   1181  H   A   B  29      21.274 -30.199  -3.397  0.00  0.00    +0.000 HD
ENDBRANCH11661180
BRANCH11631182
ATOM   1182  C5' A   B  29      17.533 -28.651  -3.426  0.00  0.00    +0.000 C 
BRANCH11821183
ATOM   1183  O5' A   B  29      16.945 -27.967  -2.327  0.00  0.00    +0.000 OA
BRANCH11831184
ATOM   1184  P   A   B  29      15.520 -27.258  -2.477  0.00  0.00    +0.000 P 
ATOM   1185  OP1 A   B  29      14.581 -28.226  -3.090  0.00  0.00    +0.000 OA
BRANCH11841186
ATOM   1186  OP2 A   B  29      15.183 -26.623  -1.175  0.00  0.00    +0.000 OA
ATOM   1187  H   A   B  29      14.320 -26.185  -1.242  0.00  0.00    +0.000 HD
ENDBRANCH11841186
BRANCH11841188
ATOM   1188  O3' U   B  28      15.815 -26.106  -3.553  0.00  0.00    +0.000 OA
BRANCH11881191
ATOM   1189  C4' U   B  28      16.149 -23.703  -3.922  0.00  0.00    +0.000 C 
ATOM   1190  O4' U   B  28      17.299 -22.819  -3.797  0.00  0.00    +0.000 OA
ATOM   1191  C3' U   B  28      16.570 -24.962  -3.183  0.00  0.00    +0.000 C 
ATOM   1192  C2' U   B  28      18.046 -25.066  -3.543  0.00  0.00    +0.000 C 
ATOM   1193  C1' U   B  28      18.461 -23.585  -3.535  0.00  0.00    +0.000 C 
BRANCH11931194
ATOM   1194  N1  U   B  28      19.013 -23.171  -2.225  0.00  0.00    +0.000 N 
ATOM   1195  C2  U   B  28      20.347 -23.466  -1.975  0.00  0.00    +0.000 A 
ATOM   1196  O2  U   B  28      21.062 -24.038  -2.782  0.00  0.00    +0.000 OA
ATOM   1197  N3  U   B  28      20.814 -23.062  -0.746  0.00  0.00    +0.000 N 
ATOM   1198  C4  U   B  28      20.098 -22.412   0.239  0.00  0.00    +0.000 A 
ATOM   1199  O4  U   B  28      20.656 -22.114   1.296  0.00  0.00    +0.000 OA
ATOM   1200  C5  U   B  28      18.727 -22.146  -0.092  0.00  0.00    +0.000 A 
ATOM   1201  C6  U   B  28      18.245 -22.526  -1.282  0.00  0.00    +0.000 A 
ATOM   1202  H   U   B  28      21.758 -23.257  -0.548  0.00  0.00    +0.000 HD
ENDBRANCH11931194
BRANCH11921203
ATOM   1203  O2' U   B  28      18.229 -25.579  -4.851  0.00  0.00    +0.000 OA
ATOM   1204  H   U   B  28      17.747 -25.026  -5.486  0.00  0.00    +0.000 HD
ENDBRANCH11921203
BRANCH11891205
ATOM   1205  C5' U   B  28      14.907 -23.015  -3.404  0.00  0.00    +0.000 C 
BRANCH12051206
ATOM   1206  O5' U   B  28      14.990 -22.760  -2.009  0.00  0.00    +0.000 OA
BRANCH12061207
ATOM   1207  P   U   B  28      13.868 -21.903  -1.264  0.00  0.00    +0.000 P 
ATOM   1208  OP1 U   B  28      12.542 -22.450  -1.631  0.00  0.00    +0.000 OA
BRANCH12071209
ATOM   1209  OP2 U   B  28      14.252 -21.787   0.166  0.00  0.00    +0.000 OA
ATOM   1210  H   U   B  28      15.145 -21.413   0.232  0.00  0.00    +0.000 HD
ENDBRANCH12071209
BRANCH12071211
ATOM   1211  O3' U   B  27      14.013 -20.462  -1.952  0.00  0.00    +0.000 OA
BRANCH12111214
ATOM   1212  C4' U   B  27      14.759 -18.139  -1.721  0.00  0.00    +0.000 C 
ATOM   1213  O4' U   B  27      16.048 -17.479  -1.862  0.00  0.00    +0.000 OA
ATOM   1214  C3' U   B  27      15.107 -19.615  -1.625  0.00  0.00    +0.000 C 
ATOM   1215  C2' U   B  27      16.276 -19.736  -2.592  0.00  0.00    +0.000 C 
ATOM   1216  C1' U   B  27      17.004 -18.403  -2.353  0.00  0.00    +0.000 C 
BRANCH12161217
ATOM   1217  N1  U   B  27      18.091 -18.533  -1.357  0.00  0.00    +0.000 N 
ATOM   1218  C2  U   B  27      19.296 -19.065  -1.794  0.00  0.00    +0.000 A 
ATOM   1219  O2  U   B  27      19.485 -19.425  -2.945  0.00  0.00    +0.000 OA
ATOM   1220  N3  U   B  27      20.275 -19.160  -0.834  0.00  0.00    +0.000 N 
ATOM   1221  C4  U   B  27      20.171 -18.790   0.491  0.00  0.00    +0.000 A 
ATOM   1222  O4  U   B  27      21.140 -18.938   1.238  0.00  0.00    +0.000 OA
ATOM   1223  C5  U   B  27      18.896 -18.252   0.866  0.00  0.00    +0.000 A 
ATOM   1224  C6  U   B  27      17.926 -18.144  -0.049  0.00  0.00    +0.000 A 
ATOM   1225  H   U   B  27      21.140 -19.531  -1.122  0.00  0.00    +0.000 HD
ENDBRANCH12161217
BRANCH12151226
ATOM   1226  O2' U   B  27      15.834 -19.773  -3.940  0.00  0.00    +0.000 OA
ATOM   1227  H   U   B  27      15.298 -18.986  -4.126  0.00  0.00    +0.000 HD
ENDBRANCH12151226
BRANCH12121228
ATOM   1228  C5' U   B  27      14.008 -17.561  -0.544  0.00  0.00    +0.000 C 
BRANCH12281229
ATOM   1229  O5' U   B  27      14.684 -17.805   0.679  0.00  0.00    +0.000 OA
BRANCH12291230
ATOM   1230  P   U   B  27      14.176 -17.151   2.044  0.00  0.00    +0.000 P 
ATOM   1231  OP1 U   B  27      12.731 -17.439   2.189  0.00  0.00    +0.000 OA
BRANCH12301232
ATOM   1232  OP2 U   B  27      15.120 -17.543   3.121  0.00  0.00    +0.000 OA
ATOM   1233  H   U   B  27      16.021 -17.285   2.871  0.00  0.00    +0.000 HD
ENDBRANCH12301232
BRANCH12301234
ATOM   1234  O3' U   B  26      14.335 -15.582   1.770  0.00  0.00    +0.000 OA
BRANCH12341237
ATOM   1235  C4' U   B  26      15.612 -13.528   2.172  0.00  0.00    +0.000 C 
ATOM   1236  O4' U   B  26      16.846 -12.989   1.619  0.00  0.00    +0.000 OA
ATOM   1237  C3' U   B  26      15.624 -14.986   1.748  0.00  0.00    +0.000 C 
ATOM   1238  C2' U   B  26      16.230 -14.909   0.353  0.00  0.00    +0.000 C 
ATOM   1239  C1' U   B  26      17.278 -13.800   0.540  0.00  0.00    +0.000 C 
BRANCH12391240
ATOM   1240  N1  U   B  26      18.612 -14.351   0.864  0.00  0.00    +0.000 N 
ATOM   1241  C2  U   B  26      19.377 -14.828  -0.192  0.00  0.00    +0.000 A 
ATOM   1242  O2  U   B  26      18.997 -14.810  -1.350  0.00  0.00    +0.000 OA
ATOM   1243  N3  U   B  26      20.611 -15.325   0.159  0.00  0.00    +0.000 N 
ATOM   1244  C4  U   B  26      21.141 -15.398   1.428  0.00  0.00    +0.000 A 
ATOM   1245  O4  U   B  26      22.266 -15.876   1.589  0.00  0.00    +0.000 OA
ATOM   1246  C5  U   B  26      20.290 -14.890   2.463  0.00  0.00    +0.000 A 
ATOM   1247  C6  U   B  26      19.086 -14.396   2.152  0.00  0.00    +0.000 A 
ATOM   1248  H   U   B  26      21.174 -15.664  -0.574  0.00  0.00    +0.000 HD
ENDBRANCH12391240
BRANCH12381249
ATOM   1249  O2' U   B  26      15.277 -14.472  -0.603  0.00  0.00    +0.000 OA
ATOM   1250  H   U   B  26      14.910 -13.618  -0.326  0.00  0.00    +0.000 HD
ENDBRANCH12381249
BRANCH12351251
ATOM   1251  C5' U   B  26      15.559 -13.274   3.661  0.00  0.00    +0.000 C 
BRANCH12511252
ATOM   1252  O5' U   B  26      16.625 -13.915   4.341  0.00  0.00    +0.000 OA
BRANCH12521253
ATOM   1253  P   U   B  26      16.924 -13.604   5.878  0.00  0.00    +0.000 P 
ATOM   1254  OP2 U   B  26      18.114 -14.393   6.286  0.00  0.00    +0.000 OA
BRANCH12531255
ATOM   1255  OP1 U   B  26      15.657 -13.737   6.634  0.00  0.00    +0.000 OA
ATOM   1256  H   U   B  26      14.984 -13.159   6.242  0.00  0.00    +0.000 HD
ENDBRANCH12531255
BRANCH12531257
ATOM   1257  O3' U   B  25      17.326 -12.051   5.861  0.00  0.00    +0.000 OA
BRANCH12571260
ATOM   1258  C4' U   B  25      19.108 -10.374   5.972  0.00  0.00    +0.000 C 
ATOM   1259  O4' U   B  25      20.064  -9.862   5.001  0.00  0.00    +0.000 OA
ATOM   1260  C3' U   B  25      18.577 -11.643   5.328  0.00  0.00    +0.000 C 
ATOM   1261  C2' U   B  25      18.510 -11.255   3.858  0.00  0.00    +0.000 C 
ATOM   1262  C1' U   B  25      19.772 -10.388   3.719  0.00  0.00    +0.000 C 
BRANCH12621263
ATOM   1263  N1  U   B  25      20.934 -11.174   3.251  0.00  0.00    +0.000 N 
ATOM   1264  C2  U   B  25      21.043 -11.396   1.886  0.00  0.00    +0.000 A 
ATOM   1265  O2  U   B  25      20.237 -10.975   1.076  0.00  0.00    +0.000 OA
ATOM   1266  N3  U   B  25      22.144 -12.130   1.500  0.00  0.00    +0.000 N 
ATOM   1267  C4  U   B  25      23.116 -12.657   2.322  0.00  0.00    +0.000 A 
ATOM   1268  O4  U   B  25      24.046 -13.298   1.827  0.00  0.00    +0.000 OA
ATOM   1269  C5  U   B  25      22.929 -12.388   3.718  0.00  0.00    +0.000 A 
ATOM   1270  C6  U   B  25      21.870 -11.674   4.122  0.00  0.00    +0.000 A 
ATOM   1271  H   U   B  25      22.247 -12.295   0.535  0.00  0.00    +0.000 HD
ENDBRANCH12621263
BRANCH12611272
ATOM   1272  O2' U   B  25      17.379 -10.446   3.586  0.00  0.00    +0.000 OA
ATOM   1273  H   U   B  25      17.395  -9.664   4.160  0.00  0.00    +0.000 HD
ENDBRANCH12611272
BRANCH12581274
ATOM   1274  C5' U   B  25      19.781 -10.547   7.314  0.00  0.00    +0.000 C 
BRANCH12741275
ATOM   1275  O5' U   B  25      20.842 -11.487   7.254  0.00  0.00    +0.000 OA
BRANCH12751276
ATOM   1276  P   U   B  25      21.881 -11.633   8.455  0.00  0.00    +0.000 P 
ATOM   1277  OP2 U   B  25      22.878 -12.669   8.083  0.00  0.00    +0.000 OA
BRANCH12761278
ATOM   1278  OP1 U   B  25      21.112 -11.771   9.718  0.00  0.00    +0.000 OA
ATOM   1279  H   U   B  25      20.655 -12.626   9.726  0.00  0.00    +0.000 HD
ENDBRANCH12761278
BRANCH12761280
ATOM   1280  O3' U   B  24      22.621 -10.209   8.479  0.00  0.00    +0.000 OA
BRANCH12801283
ATOM   1281  C4' U   B  24      24.657  -8.952   7.966  0.00  0.00    +0.000 C 
ATOM   1282  O4' U   B  24      25.176  -8.336   6.754  0.00  0.00    +0.000 OA
ATOM   1283  C3' U   B  24      23.559  -9.874   7.468  0.00  0.00    +0.000 C 
ATOM   1284  C2' U   B  24      22.951  -9.069   6.326  0.00  0.00    +0.000 C 
ATOM   1285  C1' U   B  24      24.202  -8.406   5.728  0.00  0.00    +0.000 C 
BRANCH12851286
ATOM   1286  N1  U   B  24      24.763  -9.182   4.598  0.00  0.00    +0.000 N 
ATOM   1287  C2  U   B  24      24.170  -9.013   3.353  0.00  0.00    +0.000 A 
ATOM   1288  O2  U   B  24      23.227  -8.268   3.158  0.00  0.00    +0.000 OA
ATOM   1289  N3  U   B  24      24.733  -9.752   2.335  0.00  0.00    +0.000 N 
ATOM   1290  C4  U   B  24      25.797 -10.625   2.437  0.00  0.00    +0.000 A 
ATOM   1291  O4  U   B  24      26.190 -11.218   1.429  0.00  0.00    +0.000 OA
ATOM   1292  C5  U   B  24      26.349 -10.744   3.753  0.00  0.00    +0.000 A 
ATOM   1293  C6  U   B  24      25.823 -10.036   4.763  0.00  0.00    +0.000 A 
ATOM   1294  H   U   B  24      24.334  -9.646   1.441  0.00  0.00    +0.000 HD
ENDBRANCH12851286
BRANCH12841295
ATOM   1295  O2' U   B  24      22.093  -8.053   6.808  0.00  0.00    +0.000 OA
ATOM   1296  H   U   B  24      22.580  -7.485   7.425  0.00  0.00    +0.000 HD
ENDBRANCH12841295
BRANCH12811297
ATOM   1297  C5' U   B  24      25.784  -9.620   8.723  0.00  0.00    +0.000 C 
BRANCH12971298
ATOM   1298  O5' U   B  24      26.376 -10.669   7.972  0.00  0.00    +0.000 OA
BRANCH12981299
ATOM   1299  P   U   B  24      27.700 -11.398   8.479  0.00  0.00    +0.000 P 
ATOM   1300  OP2 U   B  24      28.072 -12.431   7.475  0.00  0.00    +0.000 OA
BRANCH12991301
ATOM   1301  OP1 U   B  24      27.497 -11.788   9.896  0.00  0.00    +0.000 OA
ATOM   1302  H   U   B  24      26.829 -12.490   9.946  0.00  0.00    +0.000 HD
ENDBRANCH12991301
BRANCH12991303
ATOM   1303  O3' U   B  23      28.810 -10.238   8.445  0.00  0.00    +0.000 OA
BRANCH13031306
ATOM   1304  C4' U   B  23      30.725  -9.244   7.284  0.00  0.00    +0.000 C 
ATOM   1305  O4' U   B  23      30.851  -8.382   6.118  0.00  0.00    +0.000 OA
ATOM   1306  C3' U   B  23      29.302  -9.765   7.200  0.00  0.00    +0.000 C 
ATOM   1307  C2' U   B  23      28.545  -8.554   6.680  0.00  0.00    +0.000 C 
ATOM   1308  C1' U   B  23      29.567  -7.962   5.696  0.00  0.00    +0.000 C 
BRANCH13081309
ATOM   1309  N1  U   B  23      29.344  -8.433   4.310  0.00  0.00    +0.000 N 
ATOM   1310  C2  U   B  23      28.346  -7.805   3.577  0.00  0.00    +0.000 A 
ATOM   1311  O2  U   B  23      27.663  -6.902   4.025  0.00  0.00    +0.000 OA
ATOM   1312  N3  U   B  23      28.178  -8.275   2.294  0.00  0.00    +0.000 N 
ATOM   1313  C4  U   B  23      28.888  -9.287   1.684  0.00  0.00    +0.000 A 
ATOM   1314  O4  U   B  23      28.619  -9.598   0.520  0.00  0.00    +0.000 OA
ATOM   1315  C5  U   B  23      29.898  -9.884   2.504  0.00  0.00    +0.000 A 
ATOM   1316  C6  U   B  23      30.086  -9.447   3.759  0.00  0.00    +0.000 A 
ATOM   1317  H   U   B  23      27.477  -7.843   1.755  0.00  0.00    +0.000 HD
ENDBRANCH13081309
BRANCH13071318
ATOM   1318  O2' U   B  23      28.312  -7.606   7.706  0.00  0.00    +0.000 OA
ATOM   1319  H   U   B  23      29.157  -7.351   8.108  0.00  0.00    +0.000 HD
ENDBRANCH13071318
BRANCH13041320
ATOM   1320  C5' U   B  23      31.815 -10.291   7.264  0.00  0.00    +0.000 C 
BRANCH13201321
ATOM   1321  O5' U   B  23      31.712 -11.140   6.130  0.00  0.00    +0.000 OA
BRANCH13211322
ATOM   1322  P   U   B  23      32.871 -12.173   5.768  0.00  0.00    +0.000 P 
ATOM   1323  OP2 U   B  23      32.475 -12.892   4.527  0.00  0.00    +0.000 OA
BRANCH13221324
ATOM   1324  OP1 U   B  23      33.203 -12.940   6.993  0.00  0.00    +0.000 OA
ATOM   1325  H   U   B  23      33.908 -13.576   6.795  0.00  0.00    +0.000 HD
ENDBRANCH13221324
BRANCH13221326
ATOM   1326  O3' C   B  22      34.123 -11.227   5.428  0.00  0.00    +0.000 OA
BRANCH13261329
ATOM   1327  C4' C   B  22      35.547 -10.319   3.654  0.00  0.00    +0.000 C 
ATOM   1328  O4' C   B  22      35.426  -9.177   2.763  0.00  0.00    +0.000 OA
ATOM   1329  C3' C   B  22      34.148 -10.489   4.217  0.00  0.00    +0.000 C 
ATOM   1330  C2' C   B  22      33.688  -9.050   4.379  0.00  0.00    +0.000 C 
ATOM   1331  C1' C   B  22      34.305  -8.398   3.133  0.00  0.00    +0.000 C 
BRANCH13311332
ATOM   1332  N1  C   B  22      33.354  -8.357   1.995  0.00  0.00    +0.000 N 
ATOM   1333  C2  C   B  22      32.398  -7.335   1.962  0.00  0.00    +0.000 A 
ATOM   1334  O2  C   B  22      32.373  -6.499   2.878  0.00  0.00    +0.000 OA
ATOM   1335  N3  C   B  22      31.518  -7.284   0.928  0.00  0.00    +0.000 NA
ATOM   1336  C4  C   B  22      31.570  -8.200  -0.043  0.00  0.00    +0.000 A 
ATOM   1337  N4  C   B  22      30.682  -8.106  -1.038  0.00  0.00    +0.000 N 
ATOM   1338  C5  C   B  22      32.530  -9.248  -0.031  0.00  0.00    +0.000 A 
ATOM   1339  C6  C   B  22      33.394  -9.289   0.996  0.00  0.00    +0.000 A 
ATOM   1340  H   C   B  22      30.692  -8.764  -1.770  0.00  0.00    +0.000 HD
ATOM   1341  H   C   B  22      30.019  -7.379  -1.039  0.00  0.00    +0.000 HD
ENDBRANCH13311332
BRANCH13301342
ATOM   1342  O2' C   B  22      34.253  -8.447   5.527  0.00  0.00    +0.000 OA
ATOM   1343  H   C   B  22      35.220  -8.506   5.480  0.00  0.00    +0.000 HD
ENDBRANCH13301342
BRANCH13271344
ATOM   1344  C5' C   B  22      36.106 -11.504   2.899  0.00  0.00    +0.000 C 
BRANCH13441345
ATOM   1345  O5' C   B  22      35.235 -11.921   1.856  0.00  0.00    +0.000 OA
BRANCH13451346
ATOM   1346  P   C   B  22      35.705 -13.001   0.779  0.00  0.00    +0.000 P 
ATOM   1347  OP2 C   B  22      34.596 -13.182  -0.201  0.00  0.00    +0.000 OA
BRANCH13461348
ATOM   1348  OP1 C   B  22      36.246 -14.176   1.508  0.00  0.00    +0.000 OA
ATOM   1349  H   C   B  22      36.538 -14.846   0.870  0.00  0.00    +0.000 HD
ENDBRANCH13461348
BRANCH13461350
ATOM   1350  O3' A   B  21      36.934 -12.289   0.032  0.00  0.00    +0.000 OA
BRANCH13501353
ATOM   1351  C4' A   B  21      37.705 -11.175  -2.006  0.00  0.00    +0.000 C 
ATOM   1352  O4' A   B  21      37.604  -9.813  -2.499  0.00  0.00    +0.000 OA
ATOM   1353  C3' A   B  21      36.693 -11.227  -0.874  0.00  0.00    +0.000 C 
ATOM   1354  C2' A   B  21      36.845  -9.850  -0.247  0.00  0.00    +0.000 C 
ATOM   1355  C1' A   B  21      37.067  -8.978  -1.489  0.00  0.00    +0.000 C 
BRANCH13551356
ATOM   1356  N9  A   B  21      35.806  -8.384  -1.977  0.00  0.00    +0.000 N 
ATOM   1357  C8  A   B  21      35.046  -8.766  -3.056  0.00  0.00    +0.000 A 
ATOM   1358  N7  A   B  21      33.969  -8.028  -3.229  0.00  0.00    +0.000 NA
ATOM   1359  C5  A   B  21      34.025  -7.102  -2.196  0.00  0.00    +0.000 A 
ATOM   1360  C6  A   B  21      33.181  -6.044  -1.823  0.00  0.00    +0.000 A 
ATOM   1361  N1  A   B  21      33.525  -5.315  -0.741  0.00  0.00    +0.000 NA
ATOM   1362  C2  A   B  21      34.647  -5.632  -0.080  0.00  0.00    +0.000 A 
ATOM   1363  N3  A   B  21      35.525  -6.605  -0.334  0.00  0.00    +0.000 NA
ATOM   1364  C4  A   B  21      35.150  -7.310  -1.419  0.00  0.00    +0.000 A 
BRANCH13601365
ATOM   1365  N6  A   B  21      32.054  -5.725  -2.479  0.00  0.00    +0.000 N 
ATOM   1366  H   A   B  21      31.782  -6.242  -3.271  0.00  0.00    +0.000 HD
ATOM   1367  H   A   B  21      31.499  -4.974  -2.168  0.00  0.00    +0.000 HD
ENDBRANCH13601365
ENDBRANCH13551356
BRANCH13541368
ATOM   1368  O2' A   B  21      37.999  -9.773   0.572  0.00  0.00    +0.000 OA
ATOM   1369  H   A   B  21      38.782 -10.013   0.051  0.00  0.00    +0.000 HD
ENDBRANCH13541368
BRANCH13511370
ATOM   1370  C5' A   B  21      37.485 -12.151  -3.139  0.00  0.00    +0.000 C 
BRANCH13701371
ATOM   1371  O5' A   B  21      36.193 -11.999  -3.716  0.00  0.00    +0.000 OA
BRANCH13711372
ATOM   1372  P   A   B  21      35.821 -12.747  -5.079  0.00  0.00    +0.000 P 
ATOM   1373  OP2 A   B  21      34.434 -12.351  -5.451  0.00  0.00    +0.000 OA
BRANCH13721374
ATOM   1374  OP1 A   B  21      36.160 -14.183  -4.928  0.00  0.00    +0.000 OA
ATOM   1375  H   A   B  21      35.941 -14.655  -5.747  0.00  0.00    +0.000 HD
ENDBRANCH13721374
BRANCH13721376
ATOM   1376  O3' A   B  20      36.845 -12.131  -6.146  0.00  0.00    +0.000 OA
BRANCH13761379
ATOM   1377  C4' A   B  20      37.179 -10.578  -8.013  0.00  0.00    +0.000 C 
ATOM   1378  O4' A   B  20      37.365  -9.140  -8.094  0.00  0.00    +0.000 OA
ATOM   1379  C3' A   B  20      36.666 -10.800  -6.602  0.00  0.00    +0.000 C 
ATOM   1380  C2' A   B  20      37.462  -9.774  -5.808  0.00  0.00    +0.000 C 
ATOM   1381  C1' A   B  20      37.496  -8.601  -6.791  0.00  0.00    +0.000 C 
BRANCH13811382
ATOM   1382  N9  A   B  20      36.383  -7.659  -6.555  0.00  0.00    +0.000 N 
ATOM   1383  C8  A   B  20      35.197  -7.552  -7.243  0.00  0.00    +0.000 A 
ATOM   1384  N7  A   B  20      34.405  -6.608  -6.784  0.00  0.00    +0.000 NA
ATOM   1385  C5  A   B  20      35.115  -6.060  -5.723  0.00  0.00    +0.000 A 
ATOM   1386  C6  A   B  20      34.825  -5.022  -4.822  0.00  0.00    +0.000 A 
ATOM   1387  N6  A   B  20      33.683  -4.318  -4.847  0.00  0.00    +0.000 N 
ATOM   1388  N1  A   B  20      35.748  -4.724  -3.882  0.00  0.00    +0.000 NA
ATOM   1389  C2  A   B  20      36.888  -5.429  -3.853  0.00  0.00    +0.000 A 
ATOM   1390  N3  A   B  20      37.279  -6.430  -4.646  0.00  0.00    +0.000 NA
ATOM   1391  C4  A   B  20      36.333  -6.698  -5.571  0.00  0.00    +0.000 A 
ATOM   1392  H   A   B  20      32.996  -4.518  -5.523  0.00  0.00    +0.000 HD
ATOM   1393  H   A   B  20      33.532  -3.601  -4.189  0.00  0.00    +0.000 HD
ENDBRANCH13811382
BRANCH13801394
ATOM   1394  O2' A   B  20      38.790 -10.210  -5.575  0.00  0.00    +0.000 OA
ATOM   1395  H   A   B  20      39.217 -10.412  -6.422  0.00  0.00    +0.000 HD
ENDBRANCH13801394
BRANCH13771396
ATOM   1396  C5' A   B  20      36.274 -11.042  -9.129  0.00  0.00    +0.000 C 
BRANCH13961397
ATOM   1397  O5' A   B  20      34.985 -10.447  -9.040  0.00  0.00    +0.000 OA
BRANCH13971398
ATOM   1398  P   A   B  20      33.962 -10.533 -10.262  0.00  0.00    +0.000 P 
ATOM   1399  OP1 A   B  20      33.862 -11.955 -10.679  0.00  0.00    +0.000 OA
BRANCH13981400
ATOM   1400  OP2 A   B  20      32.731  -9.786  -9.885  0.00  0.00    +0.000 OA
ATOM   1401  H   A   B  20      32.093  -9.825 -10.615  0.00  0.00    +0.000 HD
ENDBRANCH13981400
BRANCH13981402
ATOM   1402  O3' A   B  19      34.714  -9.736 -11.438  0.00  0.00    +0.000 OA
BRANCH14021405
ATOM   1403  C4' A   B  19      34.805  -7.721 -12.826  0.00  0.00    +0.000 C 
ATOM   1404  O4' A   B  19      35.323  -6.384 -12.612  0.00  0.00    +0.000 OA
ATOM   1405  C3' A   B  19      34.747  -8.319 -11.432  0.00  0.00    +0.000 C 
ATOM   1406  C2' A   B  19      36.001  -7.741 -10.786  0.00  0.00    +0.000 C 
ATOM   1407  C1' A   B  19      36.029  -6.332 -11.386  0.00  0.00    +0.000 C 
BRANCH14071408
ATOM   1408  N9  A   B  19      35.385  -5.337 -10.509  0.00  0.00    +0.000 N 
ATOM   1409  C8  A   B  19      34.136  -4.777 -10.632  0.00  0.00    +0.000 A 
ATOM   1410  N7  A   B  19      33.854  -3.911  -9.683  0.00  0.00    +0.000 NA
ATOM   1411  C5  A   B  19      34.990  -3.902  -8.883  0.00  0.00    +0.000 A 
ATOM   1412  C6  A   B  19      35.326  -3.195  -7.715  0.00  0.00    +0.000 A 
ATOM   1413  N6  A   B  19      34.505  -2.315  -7.119  0.00  0.00    +0.000 N 
ATOM   1414  N1  A   B  19      36.541  -3.418  -7.168  0.00  0.00    +0.000 NA
ATOM   1415  C2  A   B  19      37.365  -4.298  -7.760  0.00  0.00    +0.000 A 
ATOM   1416  N3  A   B  19      37.163  -5.026  -8.861  0.00  0.00    +0.000 NA
ATOM   1417  C4  A   B  19      35.941  -4.776  -9.380  0.00  0.00    +0.000 A 
ATOM   1418  H   A   B  19      33.615  -2.136  -7.500  0.00  0.00    +0.000 HD
ATOM   1419  H   A   B  19      34.793  -1.848  -6.301  0.00  0.00    +0.000 HD
ENDBRANCH14071408
BRANCH14061420
ATOM   1420  O2' A   B  19      37.167  -8.437 -11.195  0.00  0.00    +0.000 OA
ATOM   1421  H   A   B  19      37.230  -8.422 -12.163  0.00  0.00    +0.000 HD
ENDBRANCH14061420
BRANCH14031422
ATOM   1422  C5' A   B  19      33.491  -7.658 -13.567  0.00  0.00    +0.000 C 
BRANCH14221423
ATOM   1423  O5' A   B  19      32.478  -7.022 -12.800  0.00  0.00    +0.000 OA
BRANCH14231424
ATOM   1424  P   A   B  19      31.004  -6.840 -13.383  0.00  0.00    +0.000 P 
ATOM   1425  OP1 A   B  19      30.541  -8.160 -13.881  0.00  0.00    +0.000 OA
BRANCH14241426
ATOM   1426  OP2 A   B  19      30.192  -6.105 -12.377  0.00  0.00    +0.000 OA
ATOM   1427  H   A   B  19      29.291  -5.985 -12.715  0.00  0.00    +0.000 HD
ENDBRANCH14241426
BRANCH14241428
ATOM   1428  O3' G   B  18      31.220  -5.896 -14.672  0.00  0.00    +0.000 OA
BRANCH14281431
ATOM   1429  C4' G   B  18      30.975  -3.650 -15.618  0.00  0.00    +0.000 C 
ATOM   1430  O4' G   B  18      31.793  -2.451 -15.562  0.00  0.00    +0.000 OA
ATOM   1431  C3' G   B  18      31.518  -4.518 -14.496  0.00  0.00    +0.000 C 
ATOM   1432  C2' G   B  18      33.002  -4.201 -14.526  0.00  0.00    +0.000 C 
ATOM   1433  C1' G   B  18      32.979  -2.705 -14.848  0.00  0.00    +0.000 C 
BRANCH14331434
ATOM   1434  N9  G   B  18      32.971  -1.885 -13.624  0.00  0.00    +0.000 N 
ATOM   1435  C8  G   B  18      31.950  -1.075 -13.177  0.00  0.00    +0.000 A 
ATOM   1436  N7  G   B  18      32.235  -0.478 -12.050  0.00  0.00    +0.000 NA
ATOM   1437  C5  G   B  18      33.515  -0.912 -11.737  0.00  0.00    +0.000 A 
ATOM   1438  C6  G   B  18      34.348  -0.599 -10.635  0.00  0.00    +0.000 A 
ATOM   1439  O6  G   B  18      34.112   0.152  -9.677  0.00  0.00    +0.000 OA
ATOM   1440  N1  G   B  18      35.569  -1.261 -10.705  0.00  0.00    +0.000 NA
ATOM   1441  C2  G   B  18      35.945  -2.119 -11.713  0.00  0.00    +0.000 A 
ATOM   1442  N2  G   B  18      37.169  -2.671 -11.616  0.00  0.00    +0.000 N 
ATOM   1443  N3  G   B  18      35.179  -2.421 -12.753  0.00  0.00    +0.000 N 
ATOM   1444  C4  G   B  18      33.984  -1.783 -12.699  0.00  0.00    +0.000 A 
ATOM   1445  H   G   B  18      37.486  -3.292 -12.311  0.00  0.00    +0.000 HD
ATOM   1446  H   G   B  18      37.748  -2.454 -10.850  0.00  0.00    +0.000 HD
ATOM   1447  H   G   B  18      35.446  -3.034 -13.476  0.00  0.00    +0.000 HD
ENDBRANCH14331434
BRANCH14321448
ATOM   1448  O2' G   B  18      33.653  -4.885 -15.585  0.00  0.00    +0.000 OA
ATOM   1449  H   G   B  18      33.221  -4.666 -16.425  0.00  0.00    +0.000 HD
ENDBRANCH14321448
BRANCH14291450
ATOM   1450  C5' G   B  18      29.516  -3.283 -15.528  0.00  0.00    +0.000 C 
BRANCH14501451
ATOM   1451  O5' G   B  18      29.240  -2.065 -16.186  0.00  0.00    +0.000 OA
BRANCH14511452
ATOM   1452  P   G   B  18      28.030  -1.922 -17.204  0.00  0.00    +0.000 P 
ATOM   1453  OP1 G   B  18      27.276  -3.202 -17.221  0.00  0.00    +0.000 OA
BRANCH14521454
ATOM   1454  OP2 G   B  18      27.325  -0.662 -16.889  0.00  0.00    +0.000 OA
ATOM   1455  H   G   B  18      26.578  -0.548 -17.498  0.00  0.00    +0.000 HD
ENDBRANCH14521454
BRANCH14521456
ATOM   1456  O3' C   B  17      28.743  -1.771 -18.629  0.00  0.00    +0.000 OA
BRANCH14561459
ATOM   1457  C4' C   B  17      30.158  -0.168 -19.832  0.00  0.00    +0.000 C 
ATOM   1458  O4' C   B  17      31.563  -0.150 -20.176  0.00  0.00    +0.000 OA
ATOM   1459  C3' C   B  17      30.057  -1.237 -18.757  0.00  0.00    +0.000 C 
ATOM   1460  C2' C   B  17      31.073  -2.268 -19.222  0.00  0.00    +0.000 C 
ATOM   1461  C1' C   B  17      32.169  -1.370 -19.799  0.00  0.00    +0.000 C 
BRANCH14611462
ATOM   1462  N1  C   B  17      33.241  -1.089 -18.821  0.00  0.00    +0.000 N 
ATOM   1463  C2  C   B  17      34.200  -2.082 -18.570  0.00  0.00    +0.000 A 
ATOM   1464  O2  C   B  17      34.126  -3.168 -19.169  0.00  0.00    +0.000 OA
ATOM   1465  N3  C   B  17      35.191  -1.830 -17.678  0.00  0.00    +0.000 NA
ATOM   1466  C4  C   B  17      35.245  -0.650 -17.049  0.00  0.00    +0.000 A 
ATOM   1467  N4  C   B  17      36.238  -0.451 -16.179  0.00  0.00    +0.000 N 
ATOM   1468  C5  C   B  17      34.286   0.373 -17.288  0.00  0.00    +0.000 A 
ATOM   1469  C6  C   B  17      33.312   0.114 -18.173  0.00  0.00    +0.000 A 
ATOM   1470  H   C   B  17      36.900  -1.162 -16.016  0.00  0.00    +0.000 HD
ATOM   1471  H   C   B  17      36.308   0.406 -15.700  0.00  0.00    +0.000 HD
ENDBRANCH14611462
BRANCH14601472
ATOM   1472  O2' C   B  17      30.547  -3.079 -20.257  0.00  0.00    +0.000 OA
ATOM   1473  H   C   B  17      30.248  -2.516 -20.988  0.00  0.00    +0.000 HD
ENDBRANCH14601472
BRANCH14571474
ATOM   1474  C5' C   B  17      29.712   1.213 -19.424  0.00  0.00    +0.000 C 
BRANCH14741475
ATOM   1475  O5' C   B  17      30.476   1.700 -18.328  0.00  0.00    +0.000 OA
BRANCH14751476
ATOM   1476  P   C   B  17      30.166   3.127 -17.689  0.00  0.00    +0.000 P 
ATOM   1477  OP1 C   B  17      28.712   3.188 -17.403  0.00  0.00    +0.000 OA
BRANCH14761478
ATOM   1478  OP2 C   B  17      31.151   3.361 -16.607  0.00  0.00    +0.000 OA
ATOM   1479  H   C   B  17      32.049   3.284 -16.965  0.00  0.00    +0.000 HD
ENDBRANCH14761478
BRANCH14761480
ATOM   1480  O3' C   B  16      30.467   4.144 -18.908  0.00  0.00    +0.000 OA
BRANCH14801483
ATOM   1481  C4' C   B  16      32.437   5.520 -18.725  0.00  0.00    +0.000 C 
ATOM   1482  O4' C   B  16      32.180   6.656 -19.600  0.00  0.00    +0.000 OA
ATOM   1483  C3' C   B  16      31.795   4.315 -19.398  0.00  0.00    +0.000 C 
ATOM   1484  C2' C   B  16      31.765   4.722 -20.862  0.00  0.00    +0.000 C 
ATOM   1485  C1' C   B  16      31.491   6.226 -20.750  0.00  0.00    +0.000 C 
BRANCH14851486
ATOM   1486  N1  C   B  16      31.986   7.004 -21.894  0.00  0.00    +0.000 N 
ATOM   1487  C2  C   B  16      31.059   7.641 -22.731  0.00  0.00    +0.000 A 
ATOM   1488  O2  C   B  16      29.849   7.536 -22.488  0.00  0.00    +0.000 OA
ATOM   1489  N3  C   B  16      31.516   8.367 -23.785  0.00  0.00    +0.000 NA
ATOM   1490  C4  C   B  16      32.827   8.466 -24.012  0.00  0.00    +0.000 A 
ATOM   1491  N4  C   B  16      33.225   9.188 -25.060  0.00  0.00    +0.000 N 
ATOM   1492  C5  C   B  16      33.784   7.825 -23.178  0.00  0.00    +0.000 A 
ATOM   1493  C6  C   B  16      33.324   7.114 -22.137  0.00  0.00    +0.000 A 
ATOM   1494  H   C   B  16      32.559   9.630 -25.635  0.00  0.00    +0.000 HD
ATOM   1495  H   C   B  16      34.185   9.279 -25.259  0.00  0.00    +0.000 HD
ENDBRANCH14851486
BRANCH14841496
ATOM   1496  O2' C   B  16      30.781   4.077 -21.629  0.00  0.00    +0.000 OA
ATOM   1497  H   C   B  16      29.907   4.253 -21.247  0.00  0.00    +0.000 HD
ENDBRANCH14841496
BRANCH14811498
ATOM   1498  C5' C   B  16      33.924   5.404 -18.500  0.00  0.00    +0.000 C 
BRANCH14981499
ATOM   1499  O5' C   B  16      34.626   5.160 -19.707  0.00  0.00    +0.000 OA
BRANCH14991500
ATOM   1500  P   C   B  16      36.214   5.077 -19.700  0.00  0.00    +0.000 P 
ATOM   1501  OP1 C   B  16      36.650   3.918 -20.517  0.00  0.00    +0.000 OA
BRANCH15001502
ATOM   1502  OP2 C   B  16      36.758   6.417 -20.006  0.00  0.00    +0.000 OA
ATOM   1503  H   C   B  16      36.614   6.618 -20.944  0.00  0.00    +0.000 HD
ENDBRANCH15001502
BRANCH15001504
ATOM   1504  O3' U   B  15      36.455   4.788 -18.219  0.00  0.00    +0.000 OA
BRANCH15041507
ATOM   1505  C4' U   B  15      37.774   3.196 -17.010  0.00  0.00    +0.000 C 
ATOM   1506  O4' U   B  15      37.333   3.343 -15.630  0.00  0.00    +0.000 OA
ATOM   1507  C3' U   B  15      37.718   4.601 -17.619  0.00  0.00    +0.000 C 
ATOM   1508  C2' U   B  15      37.829   5.497 -16.407  0.00  0.00    +0.000 C 
ATOM   1509  C1' U   B  15      37.036   4.698 -15.374  0.00  0.00    +0.000 C 
BRANCH15091510
ATOM   1510  N1  U   B  15      37.382   5.017 -13.975  0.00  0.00    +0.000 N 
ATOM   1511  C2  U   B  15      36.409   5.625 -13.194  0.00  0.00    +0.000 A 
ATOM   1512  O2  U   B  15      35.293   5.896 -13.610  0.00  0.00    +0.000 OA
ATOM   1513  N3  U   B  15      36.788   5.901 -11.902  0.00  0.00    +0.000 N 
ATOM   1514  C4  U   B  15      38.012   5.632 -11.328  0.00  0.00    +0.000 A 
ATOM   1515  O4  U   B  15      38.199   5.941 -10.153  0.00  0.00    +0.000 OA
ATOM   1516  C5  U   B  15      38.964   5.008 -12.200  0.00  0.00    +0.000 A 
ATOM   1517  C6  U   B  15      38.621   4.725 -13.466  0.00  0.00    +0.000 A 
ATOM   1518  H   U   B  15      36.117   6.335 -11.328  0.00  0.00    +0.000 HD
ENDBRANCH15091510
BRANCH15081519
ATOM   1519  O2' U   B  15      37.322   6.801 -16.577  0.00  0.00    +0.000 OA
ATOM   1520  H   U   B  15      36.385   6.754 -16.823  0.00  0.00    +0.000 HD
ENDBRANCH15081519
BRANCH15051521
ATOM   1521  C5' U   B  15      39.140   2.542 -17.040  0.00  0.00    +0.000 C 
BRANCH15211522
ATOM   1522  O5' U   B  15      40.081   3.267 -16.264  0.00  0.00    +0.000 OA
BRANCH15221523
ATOM   1523  P   U   B  15      41.540   2.676 -16.001  0.00  0.00    +0.000 P 
ATOM   1524  OP1 U   B  15      42.210   2.491 -17.308  0.00  0.00    +0.000 OA
BRANCH15231525
ATOM   1525  OP2 U   B  15      42.177   3.510 -14.945  0.00  0.00    +0.000 OA
ATOM   1526  H   U   B  15      42.347   4.399 -15.294  0.00  0.00    +0.000 HD
ENDBRANCH15231525
BRANCH15231527
ATOM   1527  O3' A   B  14      41.267   1.214 -15.408  0.00  0.00    +0.000 OA
BRANCH15271530
ATOM   1528  C4' A   B  14      41.310  -0.032 -13.302  0.00  0.00    +0.000 C 
ATOM   1529  O4' A   B  14      40.289  -0.381 -12.332  0.00  0.00    +0.000 OA
ATOM   1530  C3' A   B  14      40.664   1.067 -14.131  0.00  0.00    +0.000 C 
ATOM   1531  C2' A   B  14      39.215   0.621 -14.200  0.00  0.00    +0.000 C 
ATOM   1532  C1' A   B  14      39.019   0.021 -12.805  0.00  0.00    +0.000 C 
BRANCH15321533
ATOM   1533  N9  A   B  14      38.444   0.985 -11.853  0.00  0.00    +0.000 N 
ATOM   1534  C8  A   B  14      39.061   1.571 -10.772  0.00  0.00    +0.000 A 
ATOM   1535  N7  A   B  14      38.283   2.393 -10.103  0.00  0.00    +0.000 NA
ATOM   1536  C5  A   B  14      37.073   2.341 -10.792  0.00  0.00    +0.000 A 
ATOM   1537  C6  A   B  14      35.838   2.983 -10.588  0.00  0.00    +0.000 A 
ATOM   1538  N6  A   B  14      35.606   3.847  -9.587  0.00  0.00    +0.000 N 
ATOM   1539  N1  A   B  14      34.838   2.717 -11.453  0.00  0.00    +0.000 NA
ATOM   1540  C2  A   B  14      35.067   1.858 -12.457  0.00  0.00    +0.000 A 
ATOM   1541  N3  A   B  14      36.182   1.191 -12.750  0.00  0.00    +0.000 NA
ATOM   1542  C4  A   B  14      37.158   1.481 -11.866  0.00  0.00    +0.000 A 
ATOM   1543  H   A   B  14      34.720   4.266  -9.494  0.00  0.00    +0.000 HD
ATOM   1544  H   A   B  14      36.322   4.061  -8.946  0.00  0.00    +0.000 HD
ENDBRANCH15321533
BRANCH15311545
ATOM   1545  O2' A   B  14      39.034  -0.395 -15.165  0.00  0.00    +0.000 OA
ATOM   1546  H   A   B  14      39.627  -1.137 -14.968  0.00  0.00    +0.000 HD
ENDBRANCH15311545
BRANCH15281547
ATOM   1547  C5' A   B  14      42.584   0.349 -12.588  0.00  0.00    +0.000 C 
BRANCH15471548
ATOM   1548  O5' A   B  14      42.389   1.480 -11.748  0.00  0.00    +0.000 OA
BRANCH15481549
ATOM   1549  P   A   B  14      43.475   1.881 -10.656  0.00  0.00    +0.000 P 
ATOM   1550  OP1 A   B  14      44.782   2.034 -11.339  0.00  0.00    +0.000 OA
BRANCH15491551
ATOM   1551  OP2 A   B  14      42.928   3.003  -9.854  0.00  0.00    +0.000 OA
ATOM   1552  H   A   B  14      42.872   3.798 -10.407  0.00  0.00    +0.000 HD
ENDBRANCH15491551
BRANCH15491553
ATOM   1553  O3' C   B  13      43.569   0.564  -9.742  0.00  0.00    +0.000 OA
BRANCH15531556
ATOM   1554  C4' C   B  13      42.927  -0.262  -7.533  0.00  0.00    +0.000 C 
ATOM   1555  O4' C   B  13      41.793  -1.029  -7.047  0.00  0.00    +0.000 OA
ATOM   1556  C3' C   B  13      42.479   0.224  -8.900  0.00  0.00    +0.000 C 
ATOM   1557  C2' C   B  13      41.663  -0.948  -9.412  0.00  0.00    +0.000 C 
ATOM   1558  C1' C   B  13      40.971  -1.409  -8.126  0.00  0.00    +0.000 C 
BRANCH15581559
ATOM   1559  N1  C   B  13      39.639  -0.771  -7.951  0.00  0.00    +0.000 N 
ATOM   1560  C2  C   B  13      38.579  -1.180  -8.768  0.00  0.00    +0.000 A 
ATOM   1561  O2  C   B  13      38.766  -2.063  -9.618  0.00  0.00    +0.000 OA
ATOM   1562  N3  C   B  13      37.362  -0.595  -8.614  0.00  0.00    +0.000 NA
ATOM   1563  C4  C   B  13      37.188   0.356  -7.693  0.00  0.00    +0.000 A 
ATOM   1564  N4  C   B  13      35.975   0.897  -7.581  0.00  0.00    +0.000 N 
ATOM   1565  C5  C   B  13      38.250   0.789  -6.850  0.00  0.00    +0.000 A 
ATOM   1566  C6  C   B  13      39.446   0.204  -7.011  0.00  0.00    +0.000 A 
ATOM   1567  H   C   B  13      35.245   0.593  -8.167  0.00  0.00    +0.000 HD
ATOM   1568  H   C   B  13      35.810   1.600  -6.912  0.00  0.00    +0.000 HD
ENDBRANCH15581559
BRANCH15571569
ATOM   1569  O2' C   B  13      42.492  -1.999  -9.882  0.00  0.00    +0.000 OA
ATOM   1570  H   C   B  13      43.099  -2.272  -9.177  0.00  0.00    +0.000 HD
ENDBRANCH15571569
BRANCH15541571
ATOM   1571  C5' C   B  13      43.279   0.816  -6.537  0.00  0.00    +0.000 C 
BRANCH15711572
ATOM   1572  O5' C   B  13      43.770   0.252  -5.337  0.00  0.00    +0.000 OA
BRANCH15721573
ATOM   1573  P   C   B  13      43.814   1.091  -3.987  0.00  0.00    +0.000 P 
ATOM   1574  OP2 C   B  13      42.697   2.076  -4.020  0.00  0.00    +0.000 OA
BRANCH15731575
ATOM   1575  OP1 C   B  13      45.201   1.568  -3.775  0.00  0.00    +0.000 OA
ATOM   1576  H   C   B  13      45.408   2.259  -4.423  0.00  0.00    +0.000 HD
ENDBRANCH15731575
BRANCH15731577
ATOM   1577  O3' U   B  12      43.516  -0.037  -2.908  0.00  0.00    +0.000 OA
BRANCH15771580
ATOM   1578  C4' U   B  12      41.983  -1.174  -1.388  0.00  0.00    +0.000 C 
ATOM   1579  O4' U   B  12      40.837  -2.046  -1.584  0.00  0.00    +0.000 OA
ATOM   1580  C3' U   B  12      42.199  -0.542  -2.749  0.00  0.00    +0.000 C 
ATOM   1581  C2' U   B  12      41.859  -1.680  -3.700  0.00  0.00    +0.000 C 
ATOM   1582  C1' U   B  12      40.707  -2.366  -2.955  0.00  0.00    +0.000 C 
BRANCH15821583
ATOM   1583  N1  U   B  12      39.376  -1.915  -3.426  0.00  0.00    +0.000 N 
ATOM   1584  C2  U   B  12      38.845  -2.540  -4.541  0.00  0.00    +0.000 A 
ATOM   1585  O2  U   B  12      39.420  -3.432  -5.139  0.00  0.00    +0.000 OA
ATOM   1586  N3  U   B  12      37.605  -2.086  -4.936  0.00  0.00    +0.000 N 
ATOM   1587  C4  U   B  12      36.861  -1.088  -4.339  0.00  0.00    +0.000 A 
ATOM   1588  O4  U   B  12      35.760  -0.789  -4.810  0.00  0.00    +0.000 OA
ATOM   1589  C5  U   B  12      37.478  -0.488  -3.194  0.00  0.00    +0.000 A 
ATOM   1590  C6  U   B  12      38.685  -0.912  -2.787  0.00  0.00    +0.000 A 
ATOM   1591  H   U   B  12      37.208  -2.519  -5.726  0.00  0.00    +0.000 HD
ENDBRANCH15821583
BRANCH15811592
ATOM   1592  O2' U   B  12      42.932  -2.596  -3.818  0.00  0.00    +0.000 OA
ATOM   1593  H   U   B  12      43.171  -2.929  -2.939  0.00  0.00    +0.000 HD
ENDBRANCH15811592
BRANCH15781594
ATOM   1594  C5' U   B  12      41.711  -0.211  -0.254  0.00  0.00    +0.000 C 
BRANCH15941595
ATOM   1595  O5' U   B  12      40.692   0.714  -0.585  0.00  0.00    +0.000 OA
BRANCH15951596
ATOM   1596  P   U   B  12      40.101   1.713   0.505  0.00  0.00    +0.000 P 
ATOM   1597  OP2 U   B  12      38.965   2.441  -0.107  0.00  0.00    +0.000 OA
BRANCH15961598
ATOM   1598  OP1 U   B  12      41.233   2.473   1.096  0.00  0.00    +0.000 OA
ATOM   1599  H   U   B  12      41.592   3.085   0.435  0.00  0.00    +0.000 HD
ENDBRANCH15961598
BRANCH15961600
ATOM   1600  O3' U   B  11      39.537   0.720   1.616  0.00  0.00    +0.000 OA
BRANCH16001603
ATOM   1601  C4' U   B  11      37.563  -0.266   2.670  0.00  0.00    +0.000 C 
ATOM   1602  O4' U   B  11      36.702  -1.385   2.335  0.00  0.00    +0.000 OA
ATOM   1603  C3' U   B  11      38.329   0.005   1.389  0.00  0.00    +0.000 C 
ATOM   1604  C2' U   B  11      38.548  -1.393   0.832  0.00  0.00    +0.000 C 
ATOM   1605  C1' U   B  11      37.234  -2.082   1.223  0.00  0.00    +0.000 C 
BRANCH16051606
ATOM   1606  N1  U   B  11      36.237  -2.056   0.129  0.00  0.00    +0.000 N 
ATOM   1607  C2  U   B  11      36.392  -2.971  -0.900  0.00  0.00    +0.000 A 
ATOM   1608  O2  U   B  11      37.304  -3.777  -0.938  0.00  0.00    +0.000 OA
ATOM   1609  N3  U   B  11      35.436  -2.907  -1.888  0.00  0.00    +0.000 N 
ATOM   1610  C4  U   B  11      34.364  -2.042  -1.953  0.00  0.00    +0.000 A 
ATOM   1611  O4  U   B  11      33.589  -2.108  -2.911  0.00  0.00    +0.000 OA
ATOM   1612  C5  U   B  11      34.270  -1.130  -0.855  0.00  0.00    +0.000 A 
ATOM   1613  C6  U   B  11      35.188  -1.167   0.126  0.00  0.00    +0.000 A 
ATOM   1614  H   U   B  11      35.527  -3.549  -2.629  0.00  0.00    +0.000 HD
ENDBRANCH16051606
BRANCH16041615
ATOM   1615  O2' U   B  11      39.614  -2.055   1.491  0.00  0.00    +0.000 OA
ATOM   1616  H   U   B  11      39.441  -2.077   2.445  0.00  0.00    +0.000 HD
ENDBRANCH16041615
BRANCH16011617
ATOM   1617  C5' U   B  11      36.733   0.881   3.193  0.00  0.00    +0.000 C 
BRANCH16171618
ATOM   1618  O5' U   B  11      35.827   1.366   2.207  0.00  0.00    +0.000 OA
BRANCH16181619
ATOM   1619  P   U   B  11      34.745   2.474   2.566  0.00  0.00    +0.000 P 
ATOM   1620  OP2 U   B  11      33.898   2.692   1.368  0.00  0.00    +0.000 OA
BRANCH16191621
ATOM   1621  OP1 U   B  11      35.453   3.622   3.186  0.00  0.00    +0.000 OA
ATOM   1622  H   U   B  11      35.994   4.069   2.516  0.00  0.00    +0.000 HD
ENDBRANCH16191621
BRANCH16191623
ATOM   1623  O3' U   B  10      33.859   1.756   3.700  0.00  0.00    +0.000 OA
BRANCH16231626
ATOM   1624  C4' U   B  10      31.733   0.665   4.253  0.00  0.00    +0.000 C 
ATOM   1625  O4' U   B  10      31.230  -0.679   4.079  0.00  0.00    +0.000 OA
ATOM   1626  C3' U   B  10      32.940   0.741   3.333  0.00  0.00    +0.000 C 
ATOM   1627  C2' U   B  10      33.517  -0.658   3.439  0.00  0.00    +0.000 C 
ATOM   1628  C1' U   B  10      32.239  -1.494   3.518  0.00  0.00    +0.000 C 
BRANCH16281629
ATOM   1629  N1  U   B  10      31.790  -1.944   2.178  0.00  0.00    +0.000 N 
ATOM   1630  C2  U   B  10      32.487  -2.971   1.571  0.00  0.00    +0.000 A 
ATOM   1631  O2  U   B  10      33.451  -3.517   2.083  0.00  0.00    +0.000 OA
ATOM   1632  N3  U   B  10      32.021  -3.340   0.332  0.00  0.00    +0.000 N 
ATOM   1633  C4  U   B  10      30.947  -2.802  -0.346  0.00  0.00    +0.000 A 
ATOM   1634  O4  U   B  10      30.652  -3.245  -1.456  0.00  0.00    +0.000 OA
ATOM   1635  C5  U   B  10      30.272  -1.750   0.346  0.00  0.00    +0.000 A 
ATOM   1636  C6  U   B  10      30.705  -1.366   1.558  0.00  0.00    +0.000 A 
ATOM   1637  H   U   B  10      32.506  -4.067  -0.121  0.00  0.00    +0.000 HD
ENDBRANCH16281629
BRANCH16271638
ATOM   1638  O2' U   B  10      34.246  -0.831   4.643  0.00  0.00    +0.000 OA
ATOM   1639  H   U   B  10      33.676  -0.622   5.399  0.00  0.00    +0.000 HD
ENDBRANCH16271638
BRANCH16241640
ATOM   1640  C5' U   B  10      30.631   1.645   3.969  0.00  0.00    +0.000 C 
BRANCH16401641
ATOM   1641  O5' U   B  10      30.170   1.527   2.631  0.00  0.00    +0.000 OA
BRANCH16411642
ATOM   1642  P   U   B  10      28.949   2.392   2.112  0.00  0.00    +0.000 P 
ATOM   1643  OP1 U   B  10      29.067   2.556   0.636  0.00  0.00    +0.000 OA
BRANCH16421644
ATOM   1644  OP2 U   B  10      27.718   1.810   2.679  0.00  0.00    +0.000 OA
ATOM   1645  H   U   B  10      27.529   0.965   2.242  0.00  0.00    +0.000 HD
ENDBRANCH16421644
BRANCH16421646
ATOM   1646  O3' A   B   9      29.248   3.747   2.816  0.00  0.00    +0.000 OA
BRANCH16461649
ATOM   1647  C4' A   B   9      30.138   5.612   1.580  0.00  0.00    +0.000 C 
ATOM   1648  O4' A   B   9      30.557   6.613   2.533  0.00  0.00    +0.000 OA
ATOM   1649  C3' A   B   9      28.883   4.958   2.168  0.00  0.00    +0.000 C 
ATOM   1650  C2' A   B   9      28.439   5.945   3.238  0.00  0.00    +0.000 C 
ATOM   1651  C1' A   B   9      29.755   6.539   3.699  0.00  0.00    +0.000 C 
BRANCH16511652
ATOM   1652  N9  A   B   9      29.666   7.882   4.307  0.00  0.00    +0.000 N 
ATOM   1653  C8  A   B   9      30.601   8.450   5.150  0.00  0.00    +0.000 A 
ATOM   1654  N7  A   B   9      30.291   9.667   5.545  0.00  0.00    +0.000 NA
ATOM   1655  C5  A   B   9      29.073   9.915   4.928  0.00  0.00    +0.000 A 
ATOM   1656  C6  A   B   9      28.219  11.027   4.947  0.00  0.00    +0.000 A 
ATOM   1657  N6  A   B   9      28.483  12.142   5.646  0.00  0.00    +0.000 N 
ATOM   1658  N1  A   B   9      27.071  10.966   4.233  0.00  0.00    +0.000 NA
ATOM   1659  C2  A   B   9      26.810   9.848   3.535  0.00  0.00    +0.000 A 
ATOM   1660  N3  A   B   9      27.534   8.734   3.436  0.00  0.00    +0.000 NA
ATOM   1661  C4  A   B   9      28.670   8.835   4.160  0.00  0.00    +0.000 A 
ATOM   1662  H   A   B   9      27.851  12.896   5.627  0.00  0.00    +0.000 HD
ATOM   1663  H   A   B   9      29.309  12.205   6.178  0.00  0.00    +0.000 HD
ENDBRANCH16511652
BRANCH16501664
ATOM   1664  O2' A   B   9      27.758   5.366   4.336  0.00  0.00    +0.000 OA
ATOM   1665  H   A   B   9      28.332   4.711   4.764  0.00  0.00    +0.000 HD
ENDBRANCH16501664
BRANCH16471666
ATOM   1666  C5' A   B   9      29.953   6.277   0.247  0.00  0.00    +0.000 C 
BRANCH16661667
ATOM   1667  O5' A   B   9      31.210   6.696  -0.287  0.00  0.00    +0.000 OA
BRANCH16671668
ATOM   1668  P   A   B   9      31.385   7.801  -1.434  0.00  0.00    +0.000 P 
ATOM   1669  OP2 A   B   9      31.251   7.081  -2.716  0.00  0.00    +0.000 OA
BRANCH16681670
ATOM   1670  OP1 A   B   9      32.620   8.572  -1.143  0.00  0.00    +0.000 OA
ATOM   1671  H   A   B   9      32.747   9.249  -1.826  0.00  0.00    +0.000 HD
ENDBRANCH16681670
BRANCH16681672
ATOM   1672  O3' U   B   8      30.157   8.727  -1.374  0.00  0.00    +0.000 OA
BRANCH16721675
ATOM   1673  C4' U   B   8      30.655   9.878   0.761  0.00  0.00    +0.000 C 
ATOM   1674  O4' U   B   8      29.792  10.531   1.720  0.00  0.00    +0.000 OA
ATOM   1675  C3' U   B   8      29.814   9.787  -0.504  0.00  0.00    +0.000 C 
ATOM   1676  C2' U   B   8      28.406   9.626   0.002  0.00  0.00    +0.000 C 
ATOM   1677  C1' U   B   8      28.449  10.353   1.348  0.00  0.00    +0.000 C 
BRANCH16771678
ATOM   1678  N1  U   B   8      27.734  11.637   1.329  0.00  0.00    +0.000 N 
ATOM   1679  C2  U   B   8      28.410  12.817   1.397  0.00  0.00    +0.000 A 
ATOM   1680  O2  U   B   8      29.620  12.922   1.462  0.00  0.00    +0.000 OA
ATOM   1681  N3  U   B   8      27.621  13.936   1.393  0.00  0.00    +0.000 N 
ATOM   1682  C4  U   B   8      26.243  13.991   1.328  0.00  0.00    +0.000 A 
ATOM   1683  O4  U   B   8      25.669  15.079   1.333  0.00  0.00    +0.000 OA
ATOM   1684  C5  U   B   8      25.609  12.722   1.260  0.00  0.00    +0.000 A 
ATOM   1685  C6  U   B   8      26.353  11.613   1.273  0.00  0.00    +0.000 A 
ATOM   1686  H   U   B   8      28.090  14.800   1.442  0.00  0.00    +0.000 HD
ENDBRANCH16771678
BRANCH16761687
ATOM   1687  O2' U   B   8      28.047   8.271   0.227  0.00  0.00    +0.000 OA
ATOM   1688  H   U   B   8      28.663   7.875   0.863  0.00  0.00    +0.000 HD
ENDBRANCH16761687
BRANCH16731689
ATOM   1689  C5' U   B   8      31.943  10.651   0.667  0.00  0.00    +0.000 C 
BRANCH16891690
ATOM   1690  O5' U   B   8      32.267  11.240   1.929  0.00  0.00    +0.000 OA
BRANCH16901691
ATOM   1691  P   U   B   8      33.512  12.207   2.125  0.00  0.00    +0.000 P 
ATOM   1692  OP1 U   B   8      33.306  13.426   1.310  0.00  0.00    +0.000 OA
BRANCH16911693
ATOM   1693  OP2 U   B   8      33.741  12.327   3.589  0.00  0.00    +0.000 OA
ATOM   1694  H   U   B   8      34.497  12.913   3.751  0.00  0.00    +0.000 HD
ENDBRANCH16911693
BRANCH16911695
ATOM   1695  O3' C   B   7      34.706  11.367   1.422  0.00  0.00    +0.000 OA
BRANCH16951698
ATOM   1696  C4' C   B   7      37.038  11.827   1.896  0.00  0.00    +0.000 C 
ATOM   1697  O4' C   B   7      38.162  10.996   2.285  0.00  0.00    +0.000 OA
ATOM   1698  C3' C   B   7      35.825  10.979   2.202  0.00  0.00    +0.000 C 
ATOM   1699  C2' C   B   7      36.309   9.564   1.894  0.00  0.00    +0.000 C 
ATOM   1700  C1' C   B   7      37.776   9.640   2.327  0.00  0.00    +0.000 C 
BRANCH17001701
ATOM   1701  N1  C   B   7      38.004   9.120   3.688  0.00  0.00    +0.000 N 
ATOM   1702  C2  C   B   7      38.099   7.740   3.882  0.00  0.00    +0.000 A 
ATOM   1703  O2  C   B   7      37.990   6.983   2.912  0.00  0.00    +0.000 OA
ATOM   1704  N3  C   B   7      38.313   7.261   5.133  0.00  0.00    +0.000 NA
ATOM   1705  C4  C   B   7      38.430   8.100   6.161  0.00  0.00    +0.000 A 
ATOM   1706  N4  C   B   7      38.638   7.576   7.370  0.00  0.00    +0.000 N 
ATOM   1707  C5  C   B   7      38.335   9.505   5.992  0.00  0.00    +0.000 A 
ATOM   1708  C6  C   B   7      38.126   9.970   4.751  0.00  0.00    +0.000 A 
ATOM   1709  H   C   B   7      38.703   6.600   7.479  0.00  0.00    +0.000 HD
ATOM   1710  H   C   B   7      38.727   8.166   8.153  0.00  0.00    +0.000 HD
ENDBRANCH17001701
BRANCH16991711
ATOM   1711  O2' C   B   7      36.254   9.295   0.497  0.00  0.00    +0.000 OA
ATOM   1712  H   C   B   7      36.770   9.963   0.019  0.00  0.00    +0.000 HD
ENDBRANCH16991711
BRANCH16961713
ATOM   1713  C5' C   B   7      37.107  13.149   2.612  0.00  0.00    +0.000 C 
BRANCH17131714
ATOM   1714  O5' C   B   7      36.975  14.235   1.712  0.00  0.00    +0.000 OA
BRANCH17141715
ATOM   1715  P   C   B   7      38.025  15.440   1.712  0.00  0.00    +0.000 P 
ATOM   1716  OP1 C   B   7      37.456  16.549   0.909  0.00  0.00    +0.000 OA
BRANCH17151717
ATOM   1717  OP2 C   B   7      38.438  15.697   3.110  0.00  0.00    +0.000 OA
ATOM   1718  H   C   B   7      39.077  16.427   3.130  0.00  0.00    +0.000 HD
ENDBRANCH17151717
BRANCH17151719
ATOM   1719  O3' A   B   6      39.291  14.822   0.904  0.00  0.00    +0.000 OA
BRANCH17191722
ATOM   1720  C4' A   B   6      41.689  14.770   1.376  0.00  0.00    +0.000 C 
ATOM   1721  O4' A   B   6      42.619  13.699   1.674  0.00  0.00    +0.000 OA
ATOM   1722  C3' A   B   6      40.322  14.142   1.597  0.00  0.00    +0.000 C 
ATOM   1723  C2' A   B   6      40.531  12.712   1.114  0.00  0.00    +0.000 C 
ATOM   1724  C1' A   B   6      41.968  12.450   1.566  0.00  0.00    +0.000 C 
BRANCH17241725
ATOM   1725  N9  A   B   6      42.027  11.769   2.868  0.00  0.00    +0.000 N 
ATOM   1726  C8  A   B   6      42.211  12.335   4.103  0.00  0.00    +0.000 A 
ATOM   1727  N7  A   B   6      42.223  11.461   5.087  0.00  0.00    +0.000 NA
ATOM   1728  C5  A   B   6      42.035  10.239   4.451  0.00  0.00    +0.000 A 
ATOM   1729  C6  A   B   6      41.955   8.920   4.934  0.00  0.00    +0.000 A 
ATOM   1730  N6  A   B   6      42.051   8.599   6.236  0.00  0.00    +0.000 N 
ATOM   1731  N1  A   B   6      41.763   7.934   4.040  0.00  0.00    +0.000 NA
ATOM   1732  C2  A   B   6      41.665   8.255   2.744  0.00  0.00    +0.000 A 
ATOM   1733  N3  A   B   6      41.726   9.454   2.168  0.00  0.00    +0.000 NA
ATOM   1734  C4  A   B   6      41.913  10.414   3.088  0.00  0.00    +0.000 A 
ATOM   1735  H   A   B   6      41.988   7.658   6.517  0.00  0.00    +0.000 HD
ATOM   1736  H   A   B   6      42.185   9.305   6.909  0.00  0.00    +0.000 HD
ENDBRANCH17241725
BRANCH17231737
ATOM   1737  O2' A   B   6      40.479  12.634  -0.298  0.00  0.00    +0.000 OA
ATOM   1738  H   A   B   6      41.133  13.241  -0.680  0.00  0.00    +0.000 HD
ENDBRANCH17231737
BRANCH17201739
ATOM   1739  C5' A   B   6      42.002  15.971   2.235  0.00  0.00    +0.000 C 
BRANCH17391740
ATOM   1740  O5' A   B   6      41.861  15.668   3.610  0.00  0.00    +0.000 OA
BRANCH17401741
ATOM   1741  P   A   B   6      42.431  16.657   4.725  0.00  0.00    +0.000 P 
ATOM   1742  OP1 A   B   6      41.873  18.007   4.476  0.00  0.00    +0.000 OA
BRANCH17411743
ATOM   1743  OP2 A   B   6      42.242  16.005   6.051  0.00  0.00    +0.000 OA
ATOM   1744  H   A   B   6      42.666  15.133   6.046  0.00  0.00    +0.000 HD
ENDBRANCH17411743
BRANCH17411745
ATOM   1745  O3' U   B   5      44.010  16.694   4.415  0.00  0.00    +0.000 OA
BRANCH17451748
ATOM   1746  C4' U   B   5      46.251  16.029   5.135  0.00  0.00    +0.000 C 
ATOM   1747  O4' U   B   5      47.048  14.830   4.945  0.00  0.00    +0.000 OA
ATOM   1748  C3' U   B   5      44.846  15.601   4.759  0.00  0.00    +0.000 C 
ATOM   1749  C2' U   B   5      45.098  14.643   3.602  0.00  0.00    +0.000 C 
ATOM   1750  C1' U   B   5      46.384  13.950   4.061  0.00  0.00    +0.000 C 
BRANCH17501751
ATOM   1751  N1  U   B   5      46.106  12.684   4.771  0.00  0.00    +0.000 N 
ATOM   1752  C2  U   B   5      45.857  11.559   4.003  0.00  0.00    +0.000 A 
ATOM   1753  O2  U   B   5      45.858  11.574   2.782  0.00  0.00    +0.000 OA
ATOM   1754  N3  U   B   5      45.607  10.410   4.716  0.00  0.00    +0.000 N 
ATOM   1755  C4  U   B   5      45.582  10.272   6.091  0.00  0.00    +0.000 A 
ATOM   1756  O4  U   B   5      45.342   9.171   6.585  0.00  0.00    +0.000 OA
ATOM   1757  C5  U   B   5      45.849  11.477   6.811  0.00  0.00    +0.000 A 
ATOM   1758  C6  U   B   5      46.097  12.612   6.141  0.00  0.00    +0.000 A 
ATOM   1759  H   U   B   5      45.426   9.598   4.190  0.00  0.00    +0.000 HD
ENDBRANCH17501751
BRANCH17491760
ATOM   1760  O2' U   B   5      45.375  15.346   2.402  0.00  0.00    +0.000 OA
ATOM   1761  H   U   B   5      46.126  15.943   2.543  0.00  0.00    +0.000 HD
ENDBRANCH17491760
BRANCH17461762
ATOM   1762  C5' U   B   5      46.426  16.539   6.546  0.00  0.00    +0.000 C 
BRANCH17621763
ATOM   1763  O5' U   B   5      45.983  15.589   7.500  0.00  0.00    +0.000 OA
BRANCH17631764
ATOM   1764  P   U   B   5      46.338  15.756   9.046  0.00  0.00    +0.000 P 
ATOM   1765  OP1 U   B   5      45.910  17.110   9.475  0.00  0.00    +0.000 OA
BRANCH17641766
ATOM   1766  OP2 U   B   5      45.835  14.553   9.770  0.00  0.00    +0.000 OA
ATOM   1767  H   U   B   5      46.208  13.753   9.367  0.00  0.00    +0.000 HD
ENDBRANCH17641766
BRANCH17641768
ATOM   1768  O3' A   B   4      47.959  15.717   9.063  0.00  0.00    +0.000 OA
BRANCH17681771
ATOM   1769  C4' A   B   4      49.958  14.433   9.645  0.00  0.00    +0.000 C 
ATOM   1770  O4' A   B   4      50.732  13.426   8.943  0.00  0.00    +0.000 OA
ATOM   1771  C3' A   B   4      48.652  14.496   8.872  0.00  0.00    +0.000 C 
ATOM   1772  C2' A   B   4      49.110  14.281   7.438  0.00  0.00    +0.000 C 
ATOM   1773  C1' A   B   4      50.228  13.262   7.632  0.00  0.00    +0.000 C 
BRANCH17731774
ATOM   1774  N9  A   B   4      49.742  11.880   7.487  0.00  0.00    +0.000 N 
ATOM   1775  C8  A   B   4      49.437  10.991   8.488  0.00  0.00    +0.000 A 
ATOM   1776  N7  A   B   4      49.027   9.824   8.048  0.00  0.00    +0.000 NA
ATOM   1777  C5  A   B   4      49.067   9.956   6.665  0.00  0.00    +0.000 A 
ATOM   1778  C6  A   B   4      48.757   9.071   5.620  0.00  0.00    +0.000 A 
ATOM   1779  N1  A   B   4      48.904   9.514   4.358  0.00  0.00    +0.000 NA
ATOM   1780  C2  A   B   4      49.340  10.764   4.160  0.00  0.00    +0.000 A 
ATOM   1781  N3  A   B   4      49.666  11.687   5.060  0.00  0.00    +0.000 NA
ATOM   1782  C4  A   B   4      49.504  11.213   6.307  0.00  0.00    +0.000 A 
BRANCH17781783
ATOM   1783  N6  A   B   4      48.318   7.818   5.819  0.00  0.00    +0.000 N 
ATOM   1784  H   A   B   4      48.115   7.239   5.049  0.00  0.00    +0.000 HD
ATOM   1785  H   A   B   4      48.199   7.478   6.735  0.00  0.00    +0.000 HD
ENDBRANCH17781783
ENDBRANCH17731774
BRANCH17721786
ATOM   1786  O2' A   B   4      49.670  15.463   6.890  0.00  0.00    +0.000 OA
ATOM   1787  H   A   B   4      50.397  15.768   7.455  0.00  0.00    +0.000 HD
ENDBRANCH17721786
BRANCH17691788
ATOM   1788  C5' A   B   4      49.842  14.060  11.101  0.00  0.00    +0.000 C 
BRANCH17881789
ATOM   1789  O5' A   B   4      49.207  12.794  11.259  0.00  0.00    +0.000 OA
BRANCH17891790
ATOM   1790  P   A   B   4      49.269  12.024  12.654  0.00  0.00    +0.000 P 
ATOM   1791  OP2 A   B   4      48.615  10.699  12.481  0.00  0.00    +0.000 OA
BRANCH17901792
ATOM   1792  OP1 A   B   4      48.792  12.948  13.713  0.00  0.00    +0.000 OA
ATOM   1793  H   A   B   4      47.842  13.109  13.598  0.00  0.00    +0.000 HD
ENDBRANCH17901792
BRANCH17901794
ATOM   1794  O3' A   B   3      50.848  11.784  12.881  0.00  0.00    +0.000 OA
BRANCH17941797
ATOM   1795  C4' A   B   3      52.727  10.222  12.940  0.00  0.00    +0.000 C 
ATOM   1796  O4' A   B   3      53.544   9.607  11.912  0.00  0.00    +0.000 OA
ATOM   1797  C3' A   B   3      51.526  10.753  12.182  0.00  0.00    +0.000 C 
ATOM   1798  C2' A   B   3      52.146  11.219  10.872  0.00  0.00    +0.000 C 
ATOM   1799  C1' A   B   3      53.207  10.148  10.647  0.00  0.00    +0.000 C 
BRANCH17991800
ATOM   1800  N9  A   B   3      52.717   9.062   9.783  0.00  0.00    +0.000 N 
ATOM   1801  C8  A   B   3      52.283   7.814  10.162  0.00  0.00    +0.000 A 
ATOM   1802  N7  A   B   3      51.905   7.061   9.157  0.00  0.00    +0.000 NA
ATOM   1803  C5  A   B   3      52.105   7.867   8.042  0.00  0.00    +0.000 A 
ATOM   1804  C6  A   B   3      51.898   7.651   6.668  0.00  0.00    +0.000 A 
ATOM   1805  N1  A   B   3      52.198   8.659   5.825  0.00  0.00    +0.000 NA
ATOM   1806  C2  A   B   3      52.675   9.804   6.328  0.00  0.00    +0.000 A 
ATOM   1807  N3  A   B   3      52.913  10.122   7.597  0.00  0.00    +0.000 NA
ATOM   1808  C4  A   B   3      52.602   9.097   8.412  0.00  0.00    +0.000 A 
BRANCH18041809
ATOM   1809  N6  A   B   3      51.418   6.506   6.163  0.00  0.00    +0.000 N 
ATOM   1810  H   A   B   3      51.293   6.411   5.191  0.00  0.00    +0.000 HD
ATOM   1811  H   A   B   3      51.190   5.760   6.764  0.00  0.00    +0.000 HD
ENDBRANCH18041809
ENDBRANCH17991800
BRANCH17981812
ATOM   1812  O2' A   B   3      52.794  12.471  11.024  0.00  0.00    +0.000 OA
ATOM   1813  H   A   B   3      53.455  12.409  11.731  0.00  0.00    +0.000 HD
ENDBRANCH17981812
BRANCH17951814
ATOM   1814  C5' A   B   3      52.435   9.218  14.029  0.00  0.00    +0.000 C 
BRANCH18141815
ATOM   1815  O5' A   B   3      51.745   8.082  13.518  0.00  0.00    +0.000 OA
BRANCH18151816
ATOM   1816  P   A   B   3      51.603   6.760  14.394  0.00  0.00    +0.000 P 
ATOM   1817  OP2 A   B   3      50.876   5.746  13.587  0.00  0.00    +0.000 OA
BRANCH18161818
ATOM   1818  OP1 A   B   3      51.090   7.145  15.733  0.00  0.00    +0.000 OA
ATOM   1819  H   A   B   3      50.173   7.451  15.652  0.00  0.00    +0.000 HD
ENDBRANCH18161818
BRANCH18161820
ATOM   1820  O3' U   B   2      53.129   6.257  14.571  0.00  0.00    +0.000 OA
BRANCH18201823
ATOM   1821  C4' U   B   2      54.814   4.606  13.927  0.00  0.00    +0.000 C 
ATOM   1822  O4' U   B   2      55.720   4.489  12.800  0.00  0.00    +0.000 OA
ATOM   1823  C3' U   B   2      53.803   5.643  13.481  0.00  0.00    +0.000 C 
ATOM   1824  C2' U   B   2      54.661   6.611  12.675  0.00  0.00    +0.000 C 
ATOM   1825  C1' U   B   2      55.633   5.647  11.995  0.00  0.00    +0.000 C 
BRANCH18251826
ATOM   1826  N1  U   B   2      55.167   5.257  10.649  0.00  0.00    +0.000 N 
ATOM   1827  C2  U   B   2      55.369   6.153   9.610  0.00  0.00    +0.000 A 
ATOM   1828  O2  U   B   2      55.906   7.238   9.762  0.00  0.00    +0.000 OA
ATOM   1829  N3  U   B   2      54.919   5.733   8.383  0.00  0.00    +0.000 N 
ATOM   1830  C4  U   B   2      54.298   4.535   8.091  0.00  0.00    +0.000 A 
ATOM   1831  O4  U   B   2      53.949   4.301   6.935  0.00  0.00    +0.000 OA
ATOM   1832  C5  U   B   2      54.127   3.665   9.211  0.00  0.00    +0.000 A 
ATOM   1833  C6  U   B   2      54.557   4.046  10.419  0.00  0.00    +0.000 A 
ATOM   1834  H   U   B   2      55.054   6.353   7.630  0.00  0.00    +0.000 HD
ENDBRANCH18251826
BRANCH18241835
ATOM   1835  O2' U   B   2      55.403   7.473  13.523  0.00  0.00    +0.000 OA
ATOM   1836  H   U   B   2      55.938   6.943  14.135  0.00  0.00    +0.000 HD
ENDBRANCH18241835
BRANCH18211837
ATOM   1837  C5' U   B   2      54.252   3.246  14.274  0.00  0.00    +0.000 C 
BRANCH18371838
ATOM   1838  O5' U   B   2      53.449   2.730  13.217  0.00  0.00    +0.000 OA
BRANCH18381839
ATOM   1839  P   U   B   2      52.851   1.257  13.290  0.00  0.00    +0.000 P 
ATOM   1840  OP2 U   B   2      52.066   1.011  12.049  0.00  0.00    +0.000 OA
BRANCH18391841
ATOM   1841  OP1 U   B   2      52.207   1.077  14.615  0.00  0.00    +0.000 OA
ATOM   1842  H   U   B   2      51.413   1.632  14.667  0.00  0.00    +0.000 HD
ENDBRANCH18391841
BRANCH18391843
ATOM   1843  O3' C   B   1      54.201   0.278  13.275  0.00  0.00    +0.000 OA
BRANCH18431846
ATOM   1844  C4' C   B   1      55.462  -1.250  11.861  0.00  0.00    +0.000 C 
ATOM   1845  O4' C   B   1      56.585  -1.084  10.962  0.00  0.00    +0.000 OA
ATOM   1846  C3' C   B   1      54.944   0.153  12.069  0.00  0.00    +0.000 C 
ATOM   1847  C2' C   B   1      56.207   0.982  12.056  0.00  0.00    +0.000 C 
ATOM   1848  C1' C   B   1      57.034   0.252  11.002  0.00  0.00    +0.000 C 
BRANCH18481849
ATOM   1849  N1  C   B   1      56.898   0.831   9.654  0.00  0.00    +0.000 N 
ATOM   1850  C2  C   B   1      57.526   2.041   9.367  0.00  0.00    +0.000 A 
ATOM   1851  O2  C   B   1      58.181   2.611  10.254  0.00  0.00    +0.000 OA
ATOM   1852  N3  C   B   1      57.409   2.572   8.126  0.00  0.00    +0.000 NA
ATOM   1853  C4  C   B   1      56.698   1.938   7.193  0.00  0.00    +0.000 A 
ATOM   1854  N4  C   B   1      56.617   2.497   5.984  0.00  0.00    +0.000 N 
ATOM   1855  C5  C   B   1      56.049   0.700   7.451  0.00  0.00    +0.000 A 
ATOM   1856  C6  C   B   1      56.175   0.188   8.685  0.00  0.00    +0.000 A 
ATOM   1857  H   C   B   1      56.100   2.056   5.271  0.00  0.00    +0.000 HD
ATOM   1858  H   C   B   1      57.074   3.350   5.805  0.00  0.00    +0.000 HD
ENDBRANCH18481849
BRANCH18471859
ATOM   1859  O2' C   B   1      56.874   0.912  13.296  0.00  0.00    +0.000 OA
ATOM   1860  H   C   B   1      57.054  -0.016  13.514  0.00  0.00    +0.000 HD
ENDBRANCH18471859
BRANCH18441861
ATOM   1861  C5' C   B   1      54.486  -2.220  11.256  0.00  0.00    +0.000 C 
BRANCH18611862
ATOM   1862  O5' C   B   1      54.040  -1.767   9.986  0.00  0.00    +0.000 OA
BRANCH18621863
ATOM   1863  P   C   B   1      52.725  -2.306   9.261  0.00  0.00    +0.000 P 
ATOM   1864  OP2 C   B   1      53.089  -2.303   7.804  0.00  0.00    +0.000 OA
BRANCH18631865
ATOM   1865  OP3 C   B   1      52.208  -2.868   9.254  0.00  0.00    +0.000 OA
ATOM   1866  H   C   B   1      51.559  -2.702   8.553  0.00  0.00    +0.000 HD
ENDBRANCH18631865
BRANCH18631867
ATOM   1867  OP1 C   B   1      51.589  -1.492   9.692  0.00  0.00    +0.000 OA
ATOM   1868  H   C   B   1      50.781  -1.809   9.258  0.00  0.00    +0.000 HD
ENDBRANCH18631867
ENDBRANCH18621863
ENDBRANCH18611862
ENDBRANCH18441861
ENDBRANCH18431846
ENDBRANCH18391843
ENDBRANCH18381839
ENDBRANCH18371838
ENDBRANCH18211837
ENDBRANCH18201823
ENDBRANCH18161820
ENDBRANCH18151816
ENDBRANCH18141815
ENDBRANCH17951814
ENDBRANCH17941797
ENDBRANCH17901794
ENDBRANCH17891790
ENDBRANCH17881789
ENDBRANCH17691788
ENDBRANCH17681771
ENDBRANCH17641768
ENDBRANCH17631764
ENDBRANCH17621763
ENDBRANCH17461762
ENDBRANCH17451748
ENDBRANCH17411745
ENDBRANCH17401741
ENDBRANCH17391740
ENDBRANCH17201739
ENDBRANCH17191722
ENDBRANCH17151719
ENDBRANCH17141715
ENDBRANCH17131714
ENDBRANCH16961713
ENDBRANCH16951698
ENDBRANCH16911695
ENDBRANCH16901691
ENDBRANCH16891690
ENDBRANCH16731689
ENDBRANCH16721675
ENDBRANCH16681672
ENDBRANCH16671668
ENDBRANCH16661667
ENDBRANCH16471666
ENDBRANCH16461649
ENDBRANCH16421646
ENDBRANCH16411642
ENDBRANCH16401641
ENDBRANCH16241640
ENDBRANCH16231626
ENDBRANCH16191623
ENDBRANCH16181619
ENDBRANCH16171618
ENDBRANCH16011617
ENDBRANCH16001603
ENDBRANCH15961600
ENDBRANCH15951596
ENDBRANCH15941595
ENDBRANCH15781594
ENDBRANCH15771580
ENDBRANCH15731577
ENDBRANCH15721573
ENDBRANCH15711572
ENDBRANCH15541571
ENDBRANCH15531556
ENDBRANCH15491553
ENDBRANCH15481549
ENDBRANCH15471548
ENDBRANCH15281547
ENDBRANCH15271530
ENDBRANCH15231527
ENDBRANCH15221523
ENDBRANCH15211522
ENDBRANCH15051521
ENDBRANCH15041507
ENDBRANCH15001504
ENDBRANCH14991500
ENDBRANCH14981499
ENDBRANCH14811498
ENDBRANCH14801483
ENDBRANCH14761480
ENDBRANCH14751476
ENDBRANCH14741475
ENDBRANCH14571474
ENDBRANCH14561459
ENDBRANCH14521456
ENDBRANCH14511452
ENDBRANCH14501451
ENDBRANCH14291450
ENDBRANCH14281431
ENDBRANCH14241428
ENDBRANCH14231424
ENDBRANCH14221423
ENDBRANCH14031422
ENDBRANCH14021405
ENDBRANCH13981402
ENDBRANCH13971398
ENDBRANCH13961397
ENDBRANCH13771396
ENDBRANCH13761379
ENDBRANCH13721376
ENDBRANCH13711372
ENDBRANCH13701371
ENDBRANCH13511370
ENDBRANCH13501353
ENDBRANCH13461350
ENDBRANCH13451346
ENDBRANCH13441345
ENDBRANCH13271344
ENDBRANCH13261329
ENDBRANCH13221326
ENDBRANCH13211322
ENDBRANCH13201321
ENDBRANCH13041320
ENDBRANCH13031306
ENDBRANCH12991303
ENDBRANCH12981299
ENDBRANCH12971298
ENDBRANCH12811297
ENDBRANCH12801283
ENDBRANCH12761280
ENDBRANCH12751276
ENDBRANCH12741275
ENDBRANCH12581274
ENDBRANCH12571260
ENDBRANCH12531257
ENDBRANCH12521253
ENDBRANCH12511252
ENDBRANCH12351251
ENDBRANCH12341237
ENDBRANCH12301234
ENDBRANCH12291230
ENDBRANCH12281229
ENDBRANCH12121228
ENDBRANCH12111214
ENDBRANCH12071211
ENDBRANCH12061207
ENDBRANCH12051206
ENDBRANCH11891205
ENDBRANCH11881191
ENDBRANCH11841188
ENDBRANCH11831184
ENDBRANCH11821183
ENDBRANCH11631182
ENDBRANCH11621165
ENDBRANCH11581162
ENDBRANCH11571158
ENDBRANCH11561157
ENDBRANCH11371156
ENDBRANCH11361139
ENDBRANCH11321136
ENDBRANCH11311132
ENDBRANCH11301131
ENDBRANCH11111130
ENDBRANCH11101113
ENDBRANCH11061110
ENDBRANCH11051106
ENDBRANCH11041105
ENDBRANCH10851104
ENDBRANCH10841087
ENDBRANCH10801084
ENDBRANCH10791080
ENDBRANCH10781079
ENDBRANCH10621078
ENDBRANCH10611064
ENDBRANCH10571061
ENDBRANCH10561057
ENDBRANCH10551056
ENDBRANCH10361055
ENDBRANCH10351038
ENDBRANCH10311035
ENDBRANCH10301031
ENDBRANCH10291030
ENDBRANCH10101029
ENDBRANCH10091012
ENDBRANCH10051009
ENDBRANCH10041005
ENDBRANCH10031004
ENDBRANCH 9871003
ENDBRANCH 986 989
ENDBRANCH 982 986
ENDBRANCH 981 982
ENDBRANCH 980 981
ENDBRANCH 961 980
ENDBRANCH 960 963
ENDBRANCH 956 960
ENDBRANCH 955 956
ENDBRANCH 954 955
ENDBRANCH 938 954
ENDBRANCH 937 940
ENDBRANCH   1 937
TORSDOF 621
