REMARK  Name = /storage/kiran-stuff/aaRS/phase2/energy_scoring/vina_182jobs/modern_ecoli_full_pro_PRO/ligand.h.pdb
REMARK  2 active torsions:
REMARK  status: ('A' for Active; 'I' for Inactive)
REMARK    1  A    between atoms: CA_2  and  C_3
REMARK    2  A    between atoms: C_3  and  O_4
REMARK                            x       y       z     vdW  Elec       q    Type
REMARK                         _______ _______ _______ _____ _____    ______ ____
ROOT
ATOM      1  N   PRO B   1      -1.376  -3.976 -10.082  0.00  0.00    +0.000 NA
ATOM      2  CA  PRO B   1      -1.875  -3.185  -8.934  0.00  0.00    +0.000 C 
ATOM      3  CB  PRO B   1      -2.290  -4.221  -7.901  0.00  0.00    +0.000 C 
ATOM      4  CG  PRO B   1      -1.472  -5.415  -8.218  0.00  0.00    +0.000 C 
ATOM      5  CD  PRO B   1      -1.343  -5.390  -9.700  0.00  0.00    +0.000 C 
ATOM      6  H   PRO B   1      -1.998  -3.851 -10.881  0.00  0.00    +0.000 HD
ENDROOT
BRANCH   2   7
ATOM      7  C   PRO B   1      -0.790  -2.274  -8.354  0.00  0.00    +0.000 C 
ATOM      8  OXT PRO B   1       0.336  -2.279  -8.860  0.00  0.00    +0.000 OA
BRANCH   7   9
ATOM      9  O   PRO B   1      -1.054  -1.565  -7.370  0.00  0.00    +0.000 OA
ATOM     10  H   PRO B   1      -1.916  -1.577  -7.002  0.00  0.00    +0.000 HD
ENDBRANCH   7   9
ENDBRANCH   2   7
TORSDOF 2
