REMARK  Name = /storage/kiran-stuff/aaRS/phase2/energy_scoring/vina_182jobs/modern_ecoli_full_pro_PRO/ligand.h.pdb
REMARK  2 active torsions:
REMARK  status: ('A' for Active; 'I' for Inactive)
REMARK    1  A    between atoms: CA_2  and  C_3
REMARK    2  A    between atoms: C_3  and  O_4
REMARK                            x       y       z     vdW  Elec       q    Type
REMARK                         _______ _______ _______ _____ _____    ______ ____
ROOT
ATOM      1  N   PRO B   1      -1.427  -4.035 -10.020  0.00  0.00    +0.000 NA
ATOM      2  CA  PRO B   1      -1.604  -3.147  -8.849  0.00  0.00    +0.000 C 
ATOM      3  CB  PRO B   1      -2.120  -4.059  -7.746  0.00  0.00    +0.000 C 
ATOM      4  CG  PRO B   1      -1.631  -5.407  -8.115  0.00  0.00    +0.000 C 
ATOM      5  CD  PRO B   1      -1.667  -5.419  -9.603  0.00  0.00    +0.000 C 
ATOM      6  H   PRO B   1      -2.091  -3.777 -10.750  0.00  0.00    +0.000 HD
ENDROOT
BRANCH   2   7
ATOM      7  C   PRO B   1      -0.284  -2.501  -8.417  0.00  0.00    +0.000 C 
ATOM      8  OXT PRO B   1       0.770  -2.879  -8.936  0.00  0.00    +0.000 OA
BRANCH   7   9
ATOM      9  O   PRO B   1      -0.295  -1.627  -7.536  0.00  0.00    +0.000 OA
ATOM     10  H   PRO B   1      -1.108  -1.355  -7.156  0.00  0.00    +0.000 HD
ENDBRANCH   7   9
ENDBRANCH   2   7
TORSDOF 2
