REMARK  Name = /storage/kiran-stuff/aaRS/phase2/energy_scoring/vina_182jobs/modern_thrrs_ecoli_zn_ARG_ARG/ligand.h.pdb
REMARK  7 active torsions:
REMARK  status: ('A' for Active; 'I' for Inactive)
REMARK    1  A    between atoms: N_1  and  CA_2
REMARK    2  A    between atoms: CA_2  and  C_3
REMARK    3  A    between atoms: CA_2  and  CB_5
REMARK    4  A    between atoms: C_3  and  OXT_12
REMARK    5  A    between atoms: CB_5  and  CG_6
REMARK    6  A    between atoms: CG_6  and  CD_7
REMARK    7  A    between atoms: CD_7  and  NE_8
REMARK                            x       y       z     vdW  Elec       q    Type
REMARK                         _______ _______ _______ _____ _____    ______ ____
ROOT
ATOM      1  CG  ARG B   1      10.719   3.953   8.852  0.00  0.00    +0.000 C 
ENDROOT
BRANCH   1   2
ATOM      2  CB  ARG B   1      10.147   4.860   9.925  0.00  0.00    +0.000 C 
BRANCH   2   3
ATOM      3  CA  ARG B   1      10.315   4.305  11.324  0.00  0.00    +0.000 C 
BRANCH   3   4
ATOM      4  N   ARG B   1      10.100   2.878  11.326  0.00  0.00    +0.000 NA
ATOM      5  H   ARG B   1      10.778   2.431  10.710  0.00  0.00    +0.000 HD
ATOM      6  H   ARG B   1       9.156   2.676  10.996  0.00  0.00    +0.000 HD
ENDBRANCH   3   4
BRANCH   3   7
ATOM      7  C   ARG B   1       9.304   4.959  12.240  0.00  0.00    +0.000 C 
ATOM      8  O   ARG B   1       8.202   4.439  12.420  0.00  0.00    +0.000 OA
BRANCH   7   9
ATOM      9  OXT ARG B   1       9.580   6.032  12.783  0.00  0.00    +0.000 OA
ATOM     10  H   ARG B   1      10.419   6.425  12.644  0.00  0.00    +0.000 HD
ENDBRANCH   7   9
ENDBRANCH   3   7
ENDBRANCH   2   3
ENDBRANCH   1   2
BRANCH   1  11
ATOM     11  CD  ARG B   1      10.101   4.208   7.488  0.00  0.00    +0.000 C 
BRANCH  11  12
ATOM     12  NE  ARG B   1       8.688   4.573   7.611  0.00  0.00    +0.000 NA
ATOM     13  CZ  ARG B   1       8.160   5.655   7.065  0.00  0.00    +0.000 C 
ATOM     14  NH1 ARG B   1       8.895   6.442   6.301  0.00  0.00    +0.000 N 
ATOM     15  NH2 ARG B   1       6.898   5.948   7.290  0.00  0.00    +0.000 N 
ATOM     16  H   ARG B   1       8.498   7.246   5.896  0.00  0.00    +0.000 HD
ATOM     17  H   ARG B   1       9.842   6.224   6.137  0.00  0.00    +0.000 HD
ATOM     18  H   ARG B   1       6.500   6.753   6.886  0.00  0.00    +0.000 HD
ATOM     19  H   ARG B   1       6.352   5.363   7.863  0.00  0.00    +0.000 HD
ENDBRANCH  11  12
ENDBRANCH   1  11
TORSDOF 7
