REMARK  Name = /storage/kiran-stuff/aaRS/phase2/energy_scoring/vina_182jobs/modern_thrrs_ecoli_zn_ARG_ARG/ligand.h.pdb
REMARK  7 active torsions:
REMARK  status: ('A' for Active; 'I' for Inactive)
REMARK    1  A    between atoms: N_1  and  CA_2
REMARK    2  A    between atoms: CA_2  and  C_3
REMARK    3  A    between atoms: CA_2  and  CB_5
REMARK    4  A    between atoms: C_3  and  OXT_12
REMARK    5  A    between atoms: CB_5  and  CG_6
REMARK    6  A    between atoms: CG_6  and  CD_7
REMARK    7  A    between atoms: CD_7  and  NE_8
REMARK                            x       y       z     vdW  Elec       q    Type
REMARK                         _______ _______ _______ _____ _____    ______ ____
ROOT
ATOM      1  CG  ARG B   1      10.530   3.724   9.155  0.00  0.00    +0.000 C 
ENDROOT
BRANCH   1   2
ATOM      2  CB  ARG B   1       9.641   4.552  10.064  0.00  0.00    +0.000 C 
BRANCH   2   3
ATOM      3  CA  ARG B   1       9.347   3.874  11.386  0.00  0.00    +0.000 C 
BRANCH   3   4
ATOM      4  N   ARG B   1       8.984   2.494  11.171  0.00  0.00    +0.000 NA
ATOM      5  H   ARG B   1       9.755   2.007  10.715  0.00  0.00    +0.000 HD
ATOM      6  H   ARG B   1       8.155   2.449  10.578  0.00  0.00    +0.000 HD
ENDBRANCH   3   4
BRANCH   3   7
ATOM      7  C   ARG B   1       8.197   4.588  12.062  0.00  0.00    +0.000 C 
ATOM      8  O   ARG B   1       7.037   4.227  11.860  0.00  0.00    +0.000 OA
BRANCH   7   9
ATOM      9  OXT ARG B   1       8.428   5.553  12.795  0.00  0.00    +0.000 OA
ATOM     10  H   ARG B   1       9.312   5.825  12.947  0.00  0.00    +0.000 HD
ENDBRANCH   7   9
ENDBRANCH   3   7
ENDBRANCH   2   3
ENDBRANCH   1   2
BRANCH   1  11
ATOM     11  CD  ARG B   1      10.302   4.031   7.685  0.00  0.00    +0.000 C 
BRANCH  11  12
ATOM     12  NE  ARG B   1       8.892   4.333   7.424  0.00  0.00    +0.000 NA
ATOM     13  CZ  ARG B   1       8.457   5.518   7.032  0.00  0.00    +0.000 C 
ATOM     14  NH1 ARG B   1       9.312   6.493   6.784  0.00  0.00    +0.000 N 
ATOM     15  NH2 ARG B   1       7.166   5.724   6.895  0.00  0.00    +0.000 N 
ATOM     16  H   ARG B   1       8.983   7.374   6.492  0.00  0.00    +0.000 HD
ATOM     17  H   ARG B   1      10.279   6.339   6.891  0.00  0.00    +0.000 HD
ATOM     18  H   ARG B   1       6.836   6.605   6.603  0.00  0.00    +0.000 HD
ATOM     19  H   ARG B   1       6.529   4.998   7.084  0.00  0.00    +0.000 HD
ENDBRANCH  11  12
ENDBRANCH   1  11
TORSDOF 7
