REMARK  Name = /storage/kiran-stuff/aaRS/phase2/energy_scoring/vina_182jobs/shallow_domain_pro_PRO/ligand.h.pdb
REMARK  2 active torsions:
REMARK  status: ('A' for Active; 'I' for Inactive)
REMARK    1  A    between atoms: CA_2  and  C_3
REMARK    2  A    between atoms: C_3  and  OXT_8
REMARK                            x       y       z     vdW  Elec       q    Type
REMARK                         _______ _______ _______ _____ _____    ______ ____
ROOT
ATOM      1  N   PRO C   1      -8.299  -2.817 -20.376  0.00  0.00    +0.000 NA
ATOM      2  CA  PRO C   1      -9.133  -1.753 -19.830  0.00  0.00    +0.000 C 
ATOM      3  CB  PRO C   1     -10.316  -1.766 -20.722  0.00  0.00    +0.000 C 
ATOM      4  CG  PRO C   1      -9.741  -2.063 -22.011  0.00  0.00    +0.000 C 
ATOM      5  CD  PRO C   1      -8.461  -2.727 -21.770  0.00  0.00    +0.000 C 
ATOM      6  H   PRO C   1      -7.322  -2.674 -20.119  0.00  0.00    +0.000 HD
ENDROOT
BRANCH   2   7
ATOM      7  C   PRO C   1      -9.465  -1.908 -18.375  0.00  0.00    +0.000 C 
ATOM      8  O   PRO C   1      -8.644  -1.548 -17.544  0.00  0.00    +0.000 OA
BRANCH   7   9
ATOM      9  OXT PRO C   1     -10.531  -2.408 -18.045  0.00  0.00    +0.000 OA
ATOM     10  H   PRO C   1     -11.145  -2.676 -18.700  0.00  0.00    +0.000 HD
ENDBRANCH   7   9
ENDBRANCH   2   7
TORSDOF 2
