REMARK  Name = /storage/kiran-stuff/aaRS/phase2/energy_scoring/vina_182jobs/shallow_domain_pro_PRO/ligand.h.pdb
REMARK  2 active torsions:
REMARK  status: ('A' for Active; 'I' for Inactive)
REMARK    1  A    between atoms: CA_2  and  C_3
REMARK    2  A    between atoms: C_3  and  OXT_8
REMARK                            x       y       z     vdW  Elec       q    Type
REMARK                         _______ _______ _______ _____ _____    ______ ____
ROOT
ATOM      1  N   PRO C   1      -8.694  -2.841 -21.264  0.00  0.00    +0.000 NA
ATOM      2  CA  PRO C   1      -9.065  -2.070 -20.084  0.00  0.00    +0.000 C 
ATOM      3  CB  PRO C   1     -10.521  -2.318 -19.968  0.00  0.00    +0.000 C 
ATOM      4  CG  PRO C   1     -10.949  -2.360 -21.345  0.00  0.00    +0.000 C 
ATOM      5  CD  PRO C   1      -9.775  -2.691 -22.151  0.00  0.00    +0.000 C 
ATOM      6  H   PRO C   1      -7.837  -2.473 -21.678  0.00  0.00    +0.000 HD
ENDROOT
BRANCH   2   7
ATOM      7  C   PRO C   1      -8.288  -2.414 -18.847  0.00  0.00    +0.000 C 
ATOM      8  O   PRO C   1      -7.191  -1.900 -18.681  0.00  0.00    +0.000 OA
BRANCH   7   9
ATOM      9  OXT PRO C   1      -8.748  -3.212 -18.043  0.00  0.00    +0.000 OA
ATOM     10  H   PRO C   1      -9.591  -3.593 -18.191  0.00  0.00    +0.000 HD
ENDBRANCH   7   9
ENDBRANCH   2   7
TORSDOF 2
