REMARK  Name = /storage/kiran-stuff/aaRS/phase2/energy_scoring/vina_182jobs/shallow_domain_pro_PRO/ligand.h.pdb
REMARK  627 active torsions:
REMARK  status: ('A' for Active; 'I' for Inactive)
REMARK    1  A    between atoms: OP3_1  and  P_2
REMARK    2  A    between atoms: P_2  and  OP2_4
REMARK    3  A    between atoms: P_2  and  O5'_5
REMARK    4  A    between atoms: O5'_5  and  C5'_6
REMARK    5  A    between atoms: C5'_6  and  C4'_7
REMARK    6  A    between atoms: C3'_9  and  O3'_10
REMARK    7  A    between atoms: O3'_10  and  P_22
REMARK    8  A    between atoms: C2'_11  and  O2'_12
REMARK    9  A    between atoms: C1'_13  and  N1_14
REMARK   10  A    between atoms: P_22  and  OP1_23
REMARK   11  A    between atoms: P_22  and  O5'_25
REMARK   12  A    between atoms: OP1_23  and  C2_1587
REMARK   13  A    between atoms: O5'_25  and  C5'_26
REMARK   14  A    between atoms: C5'_26  and  C4'_27
REMARK   15  A    between atoms: C3'_29  and  O3'_30
REMARK   16  A    between atoms: O3'_30  and  P_42
REMARK   17  A    between atoms: C2'_31  and  O2'_32
REMARK   18  A    between atoms: C1'_33  and  N1_34
REMARK   19  A    between atoms: P_42  and  OP2_44
REMARK   20  A    between atoms: P_42  and  O5'_45
REMARK   21  A    between atoms: O5'_45  and  C5'_46
REMARK   22  A    between atoms: C5'_46  and  C4'_47
REMARK   23  A    between atoms: C3'_49  and  O3'_50
REMARK   24  A    between atoms: O3'_50  and  P_64
REMARK   25  A    between atoms: C2'_51  and  O2'_52
REMARK   26  A    between atoms: C1'_53  and  N9_54
REMARK   27  A    between atoms: C6_58  and  N6_59
REMARK   28  A    between atoms: P_64  and  OP1_65
REMARK   29  A    between atoms: P_64  and  O5'_67
REMARK   30  A    between atoms: O5'_67  and  C5'_68
REMARK   31  A    between atoms: C5'_68  and  C4'_69
REMARK   32  A    between atoms: C3'_71  and  O3'_72
REMARK   33  A    between atoms: O3'_72  and  P_86
REMARK   34  A    between atoms: C2'_73  and  O2'_74
REMARK   35  A    between atoms: C1'_75  and  N9_76
REMARK   36  A    between atoms: C6_80  and  N6_81
REMARK   37  A    between atoms: P_86  and  OP1_87
REMARK   38  A    between atoms: P_86  and  O5'_89
REMARK   39  A    between atoms: O5'_89  and  C5'_90
REMARK   40  A    between atoms: C5'_90  and  C4'_91
REMARK   41  A    between atoms: C3'_93  and  O3'_94
REMARK   42  A    between atoms: O3'_94  and  P_106
REMARK   43  A    between atoms: C2'_95  and  O2'_96
REMARK   44  A    between atoms: C1'_97  and  N1_98
REMARK   45  A    between atoms: P_106  and  OP1_107
REMARK   46  A    between atoms: P_106  and  O5'_109
REMARK   47  A    between atoms: O5'_109  and  C5'_110
REMARK   48  A    between atoms: C5'_110  and  C4'_111
REMARK   49  A    between atoms: C3'_113  and  O3'_114
REMARK   50  A    between atoms: O3'_114  and  P_128
REMARK   51  A    between atoms: C2'_115  and  O2'_116
REMARK   52  A    between atoms: C1'_117  and  N9_118
REMARK   53  A    between atoms: P_128  and  OP2_130
REMARK   54  A    between atoms: P_128  and  O5'_131
REMARK   55  A    between atoms: O5'_131  and  C5'_132
REMARK   56  A    between atoms: C5'_132  and  C4'_133
REMARK   57  A    between atoms: C3'_135  and  O3'_136
REMARK   58  A    between atoms: O3'_136  and  P_148
REMARK   59  A    between atoms: C2'_137  and  O2'_138
REMARK   60  A    between atoms: C1'_139  and  N1_140
REMARK   61  A    between atoms: P_148  and  OP2_150
REMARK   62  A    between atoms: P_148  and  O5'_151
REMARK   63  A    between atoms: O5'_151  and  C5'_152
REMARK   64  A    between atoms: C5'_152  and  C4'_153
REMARK   65  A    between atoms: C3'_155  and  O3'_156
REMARK   66  A    between atoms: O3'_156  and  P_168
REMARK   67  A    between atoms: C2'_157  and  O2'_158
REMARK   68  A    between atoms: C1'_159  and  N1_160
REMARK   69  A    between atoms: P_168  and  OP1_169
REMARK   70  A    between atoms: P_168  and  O5'_171
REMARK   71  A    between atoms: O5'_171  and  C5'_172
REMARK   72  A    between atoms: C5'_172  and  C4'_173
REMARK   73  A    between atoms: C3'_175  and  O3'_176
REMARK   74  A    between atoms: O3'_176  and  P_190
REMARK   75  A    between atoms: C2'_177  and  O2'_178
REMARK   76  A    between atoms: C1'_179  and  N9_180
REMARK   77  A    between atoms: C6_184  and  N6_185
REMARK   78  A    between atoms: P_190  and  OP1_191
REMARK   79  A    between atoms: P_190  and  O5'_193
REMARK   80  A    between atoms: O5'_193  and  C5'_194
REMARK   81  A    between atoms: C5'_194  and  C4'_195
REMARK   82  A    between atoms: C3'_197  and  O3'_198
REMARK   83  A    between atoms: O3'_198  and  P_210
REMARK   84  A    between atoms: C2'_199  and  O2'_200
REMARK   85  A    between atoms: C1'_201  and  N1_202
REMARK   86  A    between atoms: P_210  and  OP2_212
REMARK   87  A    between atoms: P_210  and  O5'_213
REMARK   88  A    between atoms: O5'_213  and  C5'_214
REMARK   89  A    between atoms: C5'_214  and  C4'_215
REMARK   90  A    between atoms: C3'_217  and  O3'_218
REMARK   91  A    between atoms: O3'_218  and  P_230
REMARK   92  A    between atoms: C2'_219  and  O2'_220
REMARK   93  A    between atoms: C1'_221  and  N1_222
REMARK   94  A    between atoms: P_230  and  OP2_232
REMARK   95  A    between atoms: P_230  and  O5'_233
REMARK   96  A    between atoms: O5'_233  and  C5'_234
REMARK   97  A    between atoms: C5'_234  and  C4'_235
REMARK   98  A    between atoms: C3'_237  and  O3'_238
REMARK   99  A    between atoms: O3'_238  and  P_250
REMARK  100  A    between atoms: C2'_239  and  O2'_240
REMARK  101  A    between atoms: C1'_241  and  N1_242
REMARK  102  A    between atoms: P_250  and  OP1_251
REMARK  103  A    between atoms: P_250  and  O5'_253
REMARK  104  A    between atoms: O5'_253  and  C5'_254
REMARK  105  A    between atoms: C5'_254  and  C4'_255
REMARK  106  A    between atoms: C3'_257  and  O3'_258
REMARK  107  A    between atoms: O3'_258  and  P_270
REMARK  108  A    between atoms: C2'_259  and  O2'_260
REMARK  109  A    between atoms: C1'_261  and  N1_262
REMARK  110  A    between atoms: P_270  and  OP1_271
REMARK  111  A    between atoms: P_270  and  O5'_273
REMARK  112  A    between atoms: O5'_273  and  C5'_274
REMARK  113  A    between atoms: C5'_274  and  C4'_275
REMARK  114  A    between atoms: C3'_277  and  O3'_278
REMARK  115  A    between atoms: O3'_278  and  P_292
REMARK  116  A    between atoms: C2'_279  and  O2'_280
REMARK  117  A    between atoms: C1'_281  and  N9_282
REMARK  118  A    between atoms: C6_286  and  N6_287
REMARK  119  A    between atoms: P_292  and  OP1_293
REMARK  120  A    between atoms: P_292  and  O5'_295
REMARK  121  A    between atoms: O5'_295  and  C5'_296
REMARK  122  A    between atoms: C5'_296  and  C4'_297
REMARK  123  A    between atoms: C3'_299  and  O3'_300
REMARK  124  A    between atoms: O3'_300  and  P_312
REMARK  125  A    between atoms: C2'_301  and  O2'_302
REMARK  126  A    between atoms: C1'_303  and  N1_304
REMARK  127  A    between atoms: P_312  and  OP1_313
REMARK  128  A    between atoms: P_312  and  O5'_315
REMARK  129  A    between atoms: O5'_315  and  C5'_316
REMARK  130  A    between atoms: C5'_316  and  C4'_317
REMARK  131  A    between atoms: C3'_319  and  O3'_320
REMARK  132  A    between atoms: O3'_320  and  P_332
REMARK  133  A    between atoms: C2'_321  and  O2'_322
REMARK  134  A    between atoms: C1'_323  and  N1_324
REMARK  135  A    between atoms: P_332  and  OP2_334
REMARK  136  A    between atoms: P_332  and  O5'_335
REMARK  137  A    between atoms: O5'_335  and  C5'_336
REMARK  138  A    between atoms: C5'_336  and  C4'_337
REMARK  139  A    between atoms: C3'_339  and  O3'_340
REMARK  140  A    between atoms: O3'_340  and  P_352
REMARK  141  A    between atoms: C2'_341  and  O2'_342
REMARK  142  A    between atoms: C1'_343  and  N1_344
REMARK  143  A    between atoms: P_352  and  OP1_353
REMARK  144  A    between atoms: P_352  and  O5'_355
REMARK  145  A    between atoms: O5'_355  and  C5'_356
REMARK  146  A    between atoms: C5'_356  and  C4'_357
REMARK  147  A    between atoms: C3'_359  and  O3'_360
REMARK  148  A    between atoms: O3'_360  and  P_375
REMARK  149  A    between atoms: C2'_361  and  O2'_362
REMARK  150  A    between atoms: C1'_363  and  N9_364
REMARK  151  A    between atoms: P_375  and  OP1_376
REMARK  152  A    between atoms: P_375  and  O5'_378
REMARK  153  A    between atoms: O5'_378  and  C5'_379
REMARK  154  A    between atoms: C5'_379  and  C4'_380
REMARK  155  A    between atoms: C3'_382  and  O3'_383
REMARK  156  A    between atoms: O3'_383  and  P_397
REMARK  157  A    between atoms: C2'_384  and  O2'_385
REMARK  158  A    between atoms: C1'_386  and  N9_387
REMARK  159  A    between atoms: C6_391  and  N6_392
REMARK  160  A    between atoms: P_397  and  OP1_398
REMARK  161  A    between atoms: P_397  and  O5'_400
REMARK  162  A    between atoms: O5'_400  and  C5'_401
REMARK  163  A    between atoms: C5'_401  and  C4'_402
REMARK  164  A    between atoms: C3'_404  and  O3'_405
REMARK  165  A    between atoms: O3'_405  and  P_419
REMARK  166  A    between atoms: C2'_406  and  O2'_407
REMARK  167  A    between atoms: C1'_408  and  N9_409
REMARK  168  A    between atoms: C6_413  and  N6_414
REMARK  169  A    between atoms: P_419  and  OP1_420
REMARK  170  A    between atoms: P_419  and  O5'_422
REMARK  171  A    between atoms: O5'_422  and  C5'_423
REMARK  172  A    between atoms: C5'_423  and  C4'_424
REMARK  173  A    between atoms: C3'_426  and  O3'_427
REMARK  174  A    between atoms: O3'_427  and  P_441
REMARK  175  A    between atoms: C2'_428  and  O2'_429
REMARK  176  A    between atoms: C1'_430  and  N9_431
REMARK  177  A    between atoms: C6_435  and  N6_436
REMARK  178  A    between atoms: P_441  and  OP1_442
REMARK  179  A    between atoms: P_441  and  O5'_444
REMARK  180  A    between atoms: O5'_444  and  C5'_445
REMARK  181  A    between atoms: C5'_445  and  C4'_446
REMARK  182  A    between atoms: C3'_448  and  O3'_449
REMARK  183  A    between atoms: O3'_449  and  P_461
REMARK  184  A    between atoms: C2'_450  and  O2'_451
REMARK  185  A    between atoms: C1'_452  and  N1_453
REMARK  186  A    between atoms: P_461  and  OP2_463
REMARK  187  A    between atoms: P_461  and  O5'_464
REMARK  188  A    between atoms: O5'_464  and  C5'_465
REMARK  189  A    between atoms: C5'_465  and  C4'_466
REMARK  190  A    between atoms: C3'_468  and  O3'_469
REMARK  191  A    between atoms: O3'_469  and  P_481
REMARK  192  A    between atoms: C2'_470  and  O2'_471
REMARK  193  A    between atoms: C1'_472  and  N1_473
REMARK  194  A    between atoms: P_481  and  OP2_483
REMARK  195  A    between atoms: P_481  and  O5'_484
REMARK  196  A    between atoms: O5'_484  and  C5'_485
REMARK  197  A    between atoms: C5'_485  and  C4'_486
REMARK  198  A    between atoms: C3'_488  and  O3'_489
REMARK  199  A    between atoms: O3'_489  and  P_501
REMARK  200  A    between atoms: C2'_490  and  O2'_491
REMARK  201  A    between atoms: C1'_492  and  N1_493
REMARK  202  A    between atoms: P_501  and  OP2_503
REMARK  203  A    between atoms: P_501  and  O5'_504
REMARK  204  A    between atoms: O5'_504  and  C5'_505
REMARK  205  A    between atoms: C5'_505  and  C4'_506
REMARK  206  A    between atoms: C3'_508  and  O3'_509
REMARK  207  A    between atoms: O3'_509  and  P_521
REMARK  208  A    between atoms: C2'_510  and  O2'_511
REMARK  209  A    between atoms: C1'_512  and  N1_513
REMARK  210  A    between atoms: P_521  and  OP2_523
REMARK  211  A    between atoms: P_521  and  O5'_524
REMARK  212  A    between atoms: O5'_524  and  C5'_525
REMARK  213  A    between atoms: C5'_525  and  C4'_526
REMARK  214  A    between atoms: C3'_528  and  O3'_529
REMARK  215  A    between atoms: O3'_529  and  P_541
REMARK  216  A    between atoms: C2'_530  and  O2'_531
REMARK  217  A    between atoms: C1'_532  and  N1_533
REMARK  218  A    between atoms: P_541  and  OP1_542
REMARK  219  A    between atoms: P_541  and  O5'_544
REMARK  220  A    between atoms: O5'_544  and  C5'_545
REMARK  221  A    between atoms: C5'_545  and  C4'_546
REMARK  222  A    between atoms: C3'_548  and  O3'_549
REMARK  223  A    between atoms: O3'_549  and  P_561
REMARK  224  A    between atoms: C2'_550  and  O2'_551
REMARK  225  A    between atoms: C1'_552  and  N1_553
REMARK  226  A    between atoms: P_561  and  OP1_562
REMARK  227  A    between atoms: P_561  and  O5'_564
REMARK  228  A    between atoms: O5'_564  and  C5'_565
REMARK  229  A    between atoms: C5'_565  and  C4'_566
REMARK  230  A    between atoms: C3'_568  and  O3'_569
REMARK  231  A    between atoms: O3'_569  and  P_581
REMARK  232  A    between atoms: C2'_570  and  O2'_571
REMARK  233  A    between atoms: C1'_572  and  N1_573
REMARK  234  A    between atoms: P_581  and  OP1_582
REMARK  235  A    between atoms: P_581  and  O5'_584
REMARK  236  A    between atoms: O5'_584  and  C5'_585
REMARK  237  A    between atoms: C5'_585  and  C4'_586
REMARK  238  A    between atoms: C3'_588  and  O3'_589
REMARK  239  A    between atoms: O3'_589  and  P_603
REMARK  240  A    between atoms: C2'_590  and  O2'_591
REMARK  241  A    between atoms: C1'_592  and  N9_593
REMARK  242  A    between atoms: C6_597  and  N6_598
REMARK  243  A    between atoms: P_603  and  OP1_604
REMARK  244  A    between atoms: P_603  and  O5'_606
REMARK  245  A    between atoms: O5'_606  and  C5'_607
REMARK  246  A    between atoms: C5'_607  and  C4'_608
REMARK  247  A    between atoms: C3'_610  and  O3'_611
REMARK  248  A    between atoms: O3'_611  and  P_625
REMARK  249  A    between atoms: C2'_612  and  O2'_613
REMARK  250  A    between atoms: C1'_614  and  N9_615
REMARK  251  A    between atoms: C6_619  and  N6_620
REMARK  252  A    between atoms: P_625  and  OP1_626
REMARK  253  A    between atoms: P_625  and  O5'_628
REMARK  254  A    between atoms: O5'_628  and  C5'_629
REMARK  255  A    between atoms: C5'_629  and  C4'_630
REMARK  256  A    between atoms: C3'_632  and  O3'_633
REMARK  257  A    between atoms: O3'_633  and  P_647
REMARK  258  A    between atoms: C2'_634  and  O2'_635
REMARK  259  A    between atoms: C1'_636  and  N9_637
REMARK  260  A    between atoms: C6_641  and  N6_642
REMARK  261  A    between atoms: P_647  and  OP1_648
REMARK  262  A    between atoms: P_647  and  O5'_650
REMARK  263  A    between atoms: O5'_650  and  C5'_651
REMARK  264  A    between atoms: C5'_651  and  C4'_652
REMARK  265  A    between atoms: C3'_654  and  O3'_655
REMARK  266  A    between atoms: O3'_655  and  P_669
REMARK  267  A    between atoms: C2'_656  and  O2'_657
REMARK  268  A    between atoms: C1'_658  and  N9_659
REMARK  269  A    between atoms: C6_663  and  N6_664
REMARK  270  A    between atoms: P_669  and  OP2_671
REMARK  271  A    between atoms: P_669  and  O5'_672
REMARK  272  A    between atoms: O5'_672  and  C5'_673
REMARK  273  A    between atoms: C5'_673  and  C4'_674
REMARK  274  A    between atoms: C3'_676  and  O3'_677
REMARK  275  A    between atoms: O3'_677  and  P_689
REMARK  276  A    between atoms: C2'_678  and  O2'_679
REMARK  277  A    between atoms: C1'_680  and  N1_681
REMARK  278  A    between atoms: P_689  and  OP2_691
REMARK  279  A    between atoms: P_689  and  O5'_692
REMARK  280  A    between atoms: O5'_692  and  C5'_693
REMARK  281  A    between atoms: C5'_693  and  C4'_694
REMARK  282  A    between atoms: C3'_696  and  O3'_697
REMARK  283  A    between atoms: O3'_697  and  P_711
REMARK  284  A    between atoms: C2'_698  and  O2'_699
REMARK  285  A    between atoms: C1'_700  and  N9_701
REMARK  286  A    between atoms: P_711  and  OP2_713
REMARK  287  A    between atoms: P_711  and  O5'_714
REMARK  288  A    between atoms: O5'_714  and  C5'_715
REMARK  289  A    between atoms: C5'_715  and  C4'_716
REMARK  290  A    between atoms: C3'_718  and  O3'_719
REMARK  291  A    between atoms: O3'_719  and  P_733
REMARK  292  A    between atoms: C2'_720  and  O2'_721
REMARK  293  A    between atoms: C1'_722  and  N9_723
REMARK  294  A    between atoms: P_733  and  OP2_735
REMARK  295  A    between atoms: P_733  and  O5'_736
REMARK  296  A    between atoms: O5'_736  and  C5'_737
REMARK  297  A    between atoms: C5'_737  and  C4'_738
REMARK  298  A    between atoms: C3'_740  and  O3'_741
REMARK  299  A    between atoms: O3'_741  and  P_753
REMARK  300  A    between atoms: C2'_742  and  O2'_743
REMARK  301  A    between atoms: C1'_744  and  N1_745
REMARK  302  A    between atoms: P_753  and  OP2_755
REMARK  303  A    between atoms: P_753  and  O5'_756
REMARK  304  A    between atoms: O5'_756  and  C5'_757
REMARK  305  A    between atoms: C5'_757  and  C4'_758
REMARK  306  A    between atoms: C3'_760  and  O3'_761
REMARK  307  A    between atoms: O3'_761  and  P_775
REMARK  308  A    between atoms: C2'_762  and  O2'_763
REMARK  309  A    between atoms: C1'_764  and  N9_765
REMARK  310  A    between atoms: P_775  and  OP1_776
REMARK  311  A    between atoms: P_775  and  O5'_778
REMARK  312  A    between atoms: O5'_778  and  C5'_779
REMARK  313  A    between atoms: C5'_779  and  C4'_780
REMARK  314  A    between atoms: C3'_782  and  O3'_783
REMARK  315  A    between atoms: O3'_783  and  P_795
REMARK  316  A    between atoms: C2'_784  and  O2'_785
REMARK  317  A    between atoms: C1'_786  and  N1_787
REMARK  318  A    between atoms: P_795  and  OP1_796
REMARK  319  A    between atoms: P_795  and  O5'_798
REMARK  320  A    between atoms: O5'_798  and  C5'_799
REMARK  321  A    between atoms: C5'_799  and  C4'_800
REMARK  322  A    between atoms: C3'_802  and  O3'_803
REMARK  323  A    between atoms: O3'_803  and  P_815
REMARK  324  A    between atoms: C2'_804  and  O2'_805
REMARK  325  A    between atoms: C1'_806  and  N1_807
REMARK  326  A    between atoms: P_815  and  OP1_816
REMARK  327  A    between atoms: P_815  and  O5'_818
REMARK  328  A    between atoms: O5'_818  and  C5'_819
REMARK  329  A    between atoms: C5'_819  and  C4'_820
REMARK  330  A    between atoms: C3'_822  and  O3'_823
REMARK  331  A    between atoms: O3'_823  and  P_835
REMARK  332  A    between atoms: C2'_824  and  O2'_825
REMARK  333  A    between atoms: C1'_826  and  N1_827
REMARK  334  A    between atoms: P_835  and  OP2_837
REMARK  335  A    between atoms: P_835  and  O5'_838
REMARK  336  A    between atoms: O5'_838  and  C5'_839
REMARK  337  A    between atoms: C5'_839  and  C4'_840
REMARK  338  A    between atoms: C3'_842  and  O3'_843
REMARK  339  A    between atoms: O3'_843  and  P_855
REMARK  340  A    between atoms: C2'_844  and  O2'_845
REMARK  341  A    between atoms: C1'_846  and  N1_847
REMARK  342  A    between atoms: P_855  and  OP2_857
REMARK  343  A    between atoms: P_855  and  O5'_858
REMARK  344  A    between atoms: O5'_858  and  C5'_859
REMARK  345  A    between atoms: C5'_859  and  C4'_860
REMARK  346  A    between atoms: C3'_862  and  O3'_863
REMARK  347  A    between atoms: O3'_863  and  P_875
REMARK  348  A    between atoms: C2'_864  and  O2'_865
REMARK  349  A    between atoms: C1'_866  and  N1_867
REMARK  350  A    between atoms: P_875  and  OP1_876
REMARK  351  A    between atoms: P_875  and  O5'_878
REMARK  352  A    between atoms: O5'_878  and  C5'_879
REMARK  353  A    between atoms: C5'_879  and  C4'_880
REMARK  354  A    between atoms: C3'_882  and  O3'_883
REMARK  355  A    between atoms: O3'_883  and  P_897
REMARK  356  A    between atoms: C2'_884  and  O2'_885
REMARK  357  A    between atoms: C1'_886  and  N9_887
REMARK  358  A    between atoms: C6_891  and  N6_892
REMARK  359  A    between atoms: P_897  and  OP1_898
REMARK  360  A    between atoms: P_897  and  O5'_900
REMARK  361  A    between atoms: O5'_900  and  C5'_901
REMARK  362  A    between atoms: C5'_901  and  C4'_902
REMARK  363  A    between atoms: C3'_904  and  O3'_905
REMARK  364  A    between atoms: O3'_905  and  P_917
REMARK  365  A    between atoms: C2'_906  and  O2'_907
REMARK  366  A    between atoms: C1'_908  and  N1_909
REMARK  367  A    between atoms: P_917  and  OP1_918
REMARK  368  A    between atoms: P_917  and  O5'_920
REMARK  369  A    between atoms: O5'_920  and  C5'_921
REMARK  370  A    between atoms: C5'_921  and  C4'_922
REMARK  371  A    between atoms: C3'_924  and  O3'_925
REMARK  372  A    between atoms: O3'_925  and  P_937
REMARK  373  A    between atoms: C2'_926  and  O2'_927
REMARK  374  A    between atoms: C1'_928  and  N1_929
REMARK  375  A    between atoms: P_937  and  OP2_939
REMARK  376  A    between atoms: P_937  and  O5'_940
REMARK  377  A    between atoms: O5'_940  and  C5'_941
REMARK  378  A    between atoms: C5'_941  and  C4'_942
REMARK  379  A    between atoms: C3'_944  and  O3'_945
REMARK  380  A    between atoms: O3'_945  and  P_957
REMARK  381  A    between atoms: C2'_946  and  O2'_947
REMARK  382  A    between atoms: C1'_948  and  N1_949
REMARK  383  A    between atoms: P_957  and  OP2_959
REMARK  384  A    between atoms: P_957  and  O5'_960
REMARK  385  A    between atoms: O5'_960  and  C5'_961
REMARK  386  A    between atoms: C5'_961  and  C4'_962
REMARK  387  A    between atoms: C3'_964  and  O3'_965
REMARK  388  A    between atoms: O3'_965  and  P_977
REMARK  389  A    between atoms: C2'_966  and  O2'_967
REMARK  390  A    between atoms: C1'_968  and  N1_969
REMARK  391  A    between atoms: P_977  and  OP2_979
REMARK  392  A    between atoms: P_977  and  O5'_980
REMARK  393  A    between atoms: O5'_980  and  C5'_981
REMARK  394  A    between atoms: C5'_981  and  C4'_982
REMARK  395  A    between atoms: C3'_984  and  O3'_985
REMARK  396  A    between atoms: O3'_985  and  P_999
REMARK  397  A    between atoms: C2'_986  and  O2'_987
REMARK  398  A    between atoms: C1'_988  and  N9_989
REMARK  399  A    between atoms: P_999  and  OP2_1001
REMARK  400  A    between atoms: P_999  and  O5'_1002
REMARK  401  A    between atoms: O5'_1002  and  C5'_1003
REMARK  402  A    between atoms: C5'_1003  and  C4'_1004
REMARK  403  A    between atoms: C3'_1006  and  O3'_1007
REMARK  404  A    between atoms: O3'_1007  and  P_1019
REMARK  405  A    between atoms: C2'_1008  and  O2'_1009
REMARK  406  A    between atoms: C1'_1010  and  N1_1011
REMARK  407  A    between atoms: P_1019  and  OP2_1021
REMARK  408  A    between atoms: P_1019  and  O5'_1022
REMARK  409  A    between atoms: O5'_1022  and  C5'_1023
REMARK  410  A    between atoms: C5'_1023  and  C4'_1024
REMARK  411  A    between atoms: C3'_1026  and  O3'_1027
REMARK  412  A    between atoms: O3'_1027  and  P_1039
REMARK  413  A    between atoms: C2'_1028  and  O2'_1029
REMARK  414  A    between atoms: C1'_1030  and  N1_1031
REMARK  415  A    between atoms: P_1039  and  OP2_1041
REMARK  416  A    between atoms: P_1039  and  O5'_1042
REMARK  417  A    between atoms: O5'_1042  and  C5'_1043
REMARK  418  A    between atoms: C5'_1043  and  C4'_1044
REMARK  419  A    between atoms: C3'_1046  and  O3'_1047
REMARK  420  A    between atoms: O3'_1047  and  P_1059
REMARK  421  A    between atoms: C2'_1048  and  O2'_1049
REMARK  422  A    between atoms: C1'_1050  and  N1_1051
REMARK  423  A    between atoms: P_1059  and  OP1_1060
REMARK  424  A    between atoms: P_1059  and  O5'_1062
REMARK  425  A    between atoms: O5'_1062  and  C5'_1063
REMARK  426  A    between atoms: C5'_1063  and  C4'_1064
REMARK  427  A    between atoms: C3'_1066  and  O3'_1067
REMARK  428  A    between atoms: O3'_1067  and  P_1079
REMARK  429  A    between atoms: C2'_1068  and  O2'_1069
REMARK  430  A    between atoms: C1'_1070  and  N1_1071
REMARK  431  A    between atoms: P_1079  and  OP1_1080
REMARK  432  A    between atoms: P_1079  and  O5'_1082
REMARK  433  A    between atoms: O5'_1082  and  C5'_1083
REMARK  434  A    between atoms: C5'_1083  and  C4'_1084
REMARK  435  A    between atoms: C3'_1086  and  O3'_1087
REMARK  436  A    between atoms: O3'_1087  and  P_1101
REMARK  437  A    between atoms: C2'_1088  and  O2'_1089
REMARK  438  A    between atoms: C1'_1090  and  N9_1091
REMARK  439  A    between atoms: C6_1095  and  N6_1096
REMARK  440  A    between atoms: P_1101  and  OP1_1102
REMARK  441  A    between atoms: P_1101  and  O5'_1104
REMARK  442  A    between atoms: O5'_1104  and  C5'_1105
REMARK  443  A    between atoms: C5'_1105  and  C4'_1106
REMARK  444  A    between atoms: C3'_1108  and  O3'_1109
REMARK  445  A    between atoms: O3'_1109  and  P_1123
REMARK  446  A    between atoms: C2'_1110  and  O2'_1111
REMARK  447  A    between atoms: C1'_1112  and  N9_1113
REMARK  448  A    between atoms: C6_1117  and  N6_1118
REMARK  449  A    between atoms: P_1123  and  OP1_1124
REMARK  450  A    between atoms: P_1123  and  O5'_1126
REMARK  451  A    between atoms: O5'_1126  and  C5'_1127
REMARK  452  A    between atoms: C5'_1127  and  C4'_1128
REMARK  453  A    between atoms: C3'_1130  and  O3'_1131
REMARK  454  A    between atoms: O3'_1131  and  P_1145
REMARK  455  A    between atoms: C2'_1132  and  O2'_1133
REMARK  456  A    between atoms: C1'_1134  and  N9_1135
REMARK  457  A    between atoms: C6_1139  and  N6_1140
REMARK  458  A    between atoms: P_1145  and  OP1_1146
REMARK  459  A    between atoms: P_1145  and  O5'_1148
REMARK  460  A    between atoms: O5'_1148  and  C5'_1149
REMARK  461  A    between atoms: C5'_1149  and  C4'_1150
REMARK  462  A    between atoms: C3'_1152  and  O3'_1153
REMARK  463  A    between atoms: O3'_1153  and  P_1167
REMARK  464  A    between atoms: C2'_1154  and  O2'_1155
REMARK  465  A    between atoms: C1'_1156  and  N9_1157
REMARK  466  A    between atoms: C6_1161  and  N6_1162
REMARK  467  A    between atoms: P_1167  and  OP1_1168
REMARK  468  A    between atoms: P_1167  and  O5'_1170
REMARK  469  A    between atoms: O5'_1170  and  C5'_1171
REMARK  470  A    between atoms: C5'_1171  and  C4'_1172
REMARK  471  A    between atoms: C3'_1174  and  O3'_1175
REMARK  472  A    between atoms: O3'_1175  and  P_1189
REMARK  473  A    between atoms: C2'_1176  and  O2'_1177
REMARK  474  A    between atoms: C1'_1178  and  N9_1179
REMARK  475  A    between atoms: P_1189  and  OP2_1191
REMARK  476  A    between atoms: P_1189  and  O5'_1192
REMARK  477  A    between atoms: O5'_1192  and  C5'_1193
REMARK  478  A    between atoms: C5'_1193  and  C4'_1194
REMARK  479  A    between atoms: C3'_1196  and  O3'_1197
REMARK  480  A    between atoms: O3'_1197  and  P_1209
REMARK  481  A    between atoms: C2'_1198  and  O2'_1199
REMARK  482  A    between atoms: C1'_1200  and  N1_1201
REMARK  483  A    between atoms: P_1209  and  OP1_1210
REMARK  484  A    between atoms: P_1209  and  O5'_1212
REMARK  485  A    between atoms: O5'_1212  and  C5'_1213
REMARK  486  A    between atoms: C5'_1213  and  C4'_1214
REMARK  487  A    between atoms: C3'_1216  and  O3'_1217
REMARK  488  A    between atoms: O3'_1217  and  P_1231
REMARK  489  A    between atoms: C2'_1218  and  O2'_1219
REMARK  490  A    between atoms: C1'_1220  and  N9_1221
REMARK  491  A    between atoms: P_1231  and  OP2_1233
REMARK  492  A    between atoms: P_1231  and  O5'_1234
REMARK  493  A    between atoms: O5'_1234  and  C5'_1235
REMARK  494  A    between atoms: C5'_1235  and  C4'_1236
REMARK  495  A    between atoms: C3'_1238  and  O3'_1239
REMARK  496  A    between atoms: O3'_1239  and  P_1254
REMARK  497  A    between atoms: C2'_1240  and  O2'_1241
REMARK  498  A    between atoms: C1'_1242  and  N9_1243
REMARK  499  A    between atoms: P_1254  and  OP1_1255
REMARK  500  A    between atoms: P_1254  and  O5'_1257
REMARK  501  A    between atoms: O5'_1257  and  C5'_1258
REMARK  502  A    between atoms: C5'_1258  and  C4'_1259
REMARK  503  A    between atoms: C3'_1261  and  O3'_1262
REMARK  504  A    between atoms: O3'_1262  and  P_1276
REMARK  505  A    between atoms: C2'_1263  and  O2'_1264
REMARK  506  A    between atoms: C1'_1265  and  N9_1266
REMARK  507  A    between atoms: C6_1270  and  N6_1271
REMARK  508  A    between atoms: P_1276  and  OP1_1277
REMARK  509  A    between atoms: P_1276  and  O5'_1279
REMARK  510  A    between atoms: O5'_1279  and  C5'_1280
REMARK  511  A    between atoms: C5'_1280  and  C4'_1281
REMARK  512  A    between atoms: C3'_1283  and  O3'_1284
REMARK  513  A    between atoms: O3'_1284  and  P_1296
REMARK  514  A    between atoms: C2'_1285  and  O2'_1286
REMARK  515  A    between atoms: C1'_1287  and  N1_1288
REMARK  516  A    between atoms: P_1296  and  OP1_1297
REMARK  517  A    between atoms: P_1296  and  O5'_1299
REMARK  518  A    between atoms: O5'_1299  and  C5'_1300
REMARK  519  A    between atoms: C5'_1300  and  C4'_1301
REMARK  520  A    between atoms: C3'_1303  and  O3'_1304
REMARK  521  A    between atoms: O3'_1304  and  P_1316
REMARK  522  A    between atoms: C2'_1305  and  O2'_1306
REMARK  523  A    between atoms: C1'_1307  and  N1_1308
REMARK  524  A    between atoms: P_1316  and  OP2_1318
REMARK  525  A    between atoms: P_1316  and  O5'_1319
REMARK  526  A    between atoms: O5'_1319  and  C5'_1320
REMARK  527  A    between atoms: C5'_1320  and  C4'_1321
REMARK  528  A    between atoms: C3'_1323  and  O3'_1324
REMARK  529  A    between atoms: O3'_1324  and  P_1338
REMARK  530  A    between atoms: C2'_1325  and  O2'_1326
REMARK  531  A    between atoms: C1'_1327  and  N9_1328
REMARK  532  A    between atoms: P_1338  and  OP2_1340
REMARK  533  A    between atoms: P_1338  and  O5'_1341
REMARK  534  A    between atoms: O5'_1341  and  C5'_1342
REMARK  535  A    between atoms: C5'_1342  and  C4'_1343
REMARK  536  A    between atoms: C3'_1345  and  O3'_1346
REMARK  537  A    between atoms: C2'_1347  and  O2'_1348
REMARK  538  A    between atoms: C1'_1349  and  N1_1350
REMARK  539  A    between atoms: P_1358  and  C8_1393
REMARK  540  A    between atoms: P_1358  and  N7_1394
REMARK  541  A    between atoms: OP1_1359  and  N9_1392
REMARK  542  A    between atoms: OP1_1359  and  N7_1394
REMARK  543  A    between atoms: O5'_1361  and  C5'_1362
REMARK  544  A    between atoms: C5'_1362  and  C4'_1363
REMARK  545  A    between atoms: C3'_1365  and  O3'_1366
REMARK  546  A    between atoms: O3'_1366  and  P_1380
REMARK  547  A    between atoms: C2'_1367  and  O2'_1368
REMARK  548  A    between atoms: C1'_1369  and  N9_1370
REMARK  549  A    between atoms: P_1380  and  OP1_1381
REMARK  550  A    between atoms: P_1380  and  O5'_1383
REMARK  551  A    between atoms: O5'_1383  and  C5'_1384
REMARK  552  A    between atoms: C5'_1384  and  C4'_1385
REMARK  553  A    between atoms: C3'_1387  and  O3'_1388
REMARK  554  A    between atoms: O3'_1388  and  P_1402
REMARK  555  A    between atoms: C2'_1389  and  O2'_1390
REMARK  556  A    between atoms: P_1402  and  OP2_1404
REMARK  557  A    between atoms: P_1402  and  O5'_1405
REMARK  558  A    between atoms: O5'_1405  and  C5'_1406
REMARK  559  A    between atoms: C5'_1406  and  C4'_1407
REMARK  560  A    between atoms: C3'_1409  and  O3'_1410
REMARK  561  A    between atoms: O3'_1410  and  P_1424
REMARK  562  A    between atoms: C2'_1411  and  O2'_1412
REMARK  563  A    between atoms: C1'_1413  and  N9_1414
REMARK  564  A    between atoms: P_1424  and  OP2_1426
REMARK  565  A    between atoms: P_1424  and  O5'_1427
REMARK  566  A    between atoms: O5'_1427  and  C5'_1428
REMARK  567  A    between atoms: C5'_1428  and  C4'_1429
REMARK  568  A    between atoms: C3'_1431  and  O3'_1432
REMARK  569  A    between atoms: O3'_1432  and  P_1446
REMARK  570  A    between atoms: C2'_1433  and  O2'_1434
REMARK  571  A    between atoms: C1'_1435  and  N9_1436
REMARK  572  A    between atoms: P_1446  and  OP2_1448
REMARK  573  A    between atoms: P_1446  and  O5'_1449
REMARK  574  A    between atoms: O5'_1449  and  C5'_1450
REMARK  575  A    between atoms: C5'_1450  and  C4'_1451
REMARK  576  A    between atoms: C3'_1453  and  O3'_1454
REMARK  577  A    between atoms: O3'_1454  and  P_1468
REMARK  578  A    between atoms: C2'_1455  and  O2'_1456
REMARK  579  A    between atoms: C1'_1457  and  N9_1458
REMARK  580  A    between atoms: P_1468  and  OP2_1470
REMARK  581  A    between atoms: P_1468  and  O5'_1471
REMARK  582  A    between atoms: O5'_1471  and  C5'_1472
REMARK  583  A    between atoms: C5'_1472  and  C4'_1473
REMARK  584  A    between atoms: C3'_1475  and  O3'_1476
REMARK  585  A    between atoms: O3'_1476  and  P_1488
REMARK  586  A    between atoms: C2'_1477  and  O2'_1478
REMARK  587  A    between atoms: C1'_1479  and  N1_1480
REMARK  588  A    between atoms: P_1488  and  OP2_1490
REMARK  589  A    between atoms: P_1488  and  O5'_1491
REMARK  590  A    between atoms: O5'_1491  and  C5'_1492
REMARK  591  A    between atoms: C5'_1492  and  C4'_1493
REMARK  592  A    between atoms: C3'_1495  and  O3'_1496
REMARK  593  A    between atoms: O3'_1496  and  P_1508
REMARK  594  A    between atoms: C2'_1497  and  O2'_1498
REMARK  595  A    between atoms: C1'_1499  and  N1_1500
REMARK  596  A    between atoms: P_1508  and  OP2_1510
REMARK  597  A    between atoms: P_1508  and  O5'_1511
REMARK  598  A    between atoms: O5'_1511  and  C5'_1512
REMARK  599  A    between atoms: C5'_1512  and  C4'_1513
REMARK  600  A    between atoms: C3'_1515  and  O3'_1516
REMARK  601  A    between atoms: O3'_1516  and  P_1528
REMARK  602  A    between atoms: C2'_1517  and  O2'_1518
REMARK  603  A    between atoms: C1'_1519  and  N1_1520
REMARK  604  A    between atoms: P_1528  and  OP1_1529
REMARK  605  A    between atoms: P_1528  and  O5'_1531
REMARK  606  A    between atoms: O5'_1531  and  C5'_1532
REMARK  607  A    between atoms: C5'_1532  and  C4'_1533
REMARK  608  A    between atoms: C3'_1535  and  O3'_1536
REMARK  609  A    between atoms: O3'_1536  and  P_1548
REMARK  610  A    between atoms: C2'_1537  and  O2'_1538
REMARK  611  A    between atoms: C1'_1539  and  N1_1540
REMARK  612  A    between atoms: P_1548  and  OP1_1549
REMARK  613  A    between atoms: P_1548  and  O5'_1551
REMARK  614  A    between atoms: O5'_1551  and  C5'_1552
REMARK  615  A    between atoms: C5'_1552  and  C4'_1553
REMARK  616  A    between atoms: C3'_1555  and  O3'_1556
REMARK  617  A    between atoms: O3'_1556  and  P_1568
REMARK  618  A    between atoms: C2'_1557  and  O2'_1558
REMARK  619  A    between atoms: C1'_1559  and  N1_1560
REMARK  620  A    between atoms: P_1568  and  OP2_1570
REMARK  621  A    between atoms: P_1568  and  O5'_1571
REMARK  622  A    between atoms: O5'_1571  and  C5'_1572
REMARK  623  A    between atoms: C5'_1572  and  C4'_1573
REMARK  624  A    between atoms: C3'_1575  and  O3'_1576
REMARK  625  A    between atoms: C2'_1577  and  O2'_1578
REMARK  626  A    between atoms: C1'_1579  and  N9_1580
REMARK  627  A    between atoms: C6_1584  and  N6_1585
REMARK                            x       y       z     vdW  Elec       q    Type
REMARK                         _______ _______ _______ _____ _____    ______ ____
ROOT
ATOM      1  C4' U   B  28      26.740  25.150  29.001  0.00  0.00    +0.000 C 
ATOM      2  O4' U   B  28      26.206  24.080  28.173  0.00  0.00    +0.000 OA
ATOM      3  C3' U   B  28      27.961  24.525  29.649  0.00  0.00    +0.000 C 
ATOM      4  C2' U   B  28      27.478  23.107  29.927  0.00  0.00    +0.000 C 
ATOM      5  C1' U   B  28      26.649  22.828  28.669  0.00  0.00    +0.000 C 
ENDROOT
BRANCH   5   6
ATOM      6  N1  U   B  28      27.438  22.145  27.618  0.00  0.00    +0.000 N 
ATOM      7  C2  U   B  28      27.612  20.776  27.745  0.00  0.00    +0.000 A 
ATOM      8  O2  U   B  28      27.147  20.127  28.670  0.00  0.00    +0.000 OA
ATOM      9  N3  U   B  28      28.352  20.185  26.746  0.00  0.00    +0.000 N 
ATOM     10  C4  U   B  28      28.927  20.813  25.660  0.00  0.00    +0.000 A 
ATOM     11  O4  U   B  28      29.569  20.148  24.845  0.00  0.00    +0.000 OA
ATOM     12  C5  U   B  28      28.704  22.226  25.601  0.00  0.00    +0.000 A 
ATOM     13  C6  U   B  28      27.986  22.830  26.561  0.00  0.00    +0.000 A 
ATOM     14  H   U   B  28      28.485  19.212  26.813  0.00  0.00    +0.000 HD
ENDBRANCH   5   6
BRANCH   4  15
ATOM     15  O2' U   B  28      26.636  23.046  31.059  0.00  0.00    +0.000 OA
ATOM     16  H   U   B  28      25.888  23.652  30.939  0.00  0.00    +0.000 HD
ENDBRANCH   4  15
BRANCH   3  17
ATOM     17  O3' U   B  28      28.379  25.216  30.818  0.00  0.00    +0.000 OA
BRANCH  17  18
ATOM     18  P   A   B  29      29.931  25.214  31.257  0.00  0.00    +0.000 P 
ATOM     19  OP2 A   B  29      30.757  25.379  30.032  0.00  0.00    +0.000 OA
BRANCH  18  20
ATOM     20  OP1 A   B  29      30.090  26.169  32.381  0.00  0.00    +0.000 OA
ATOM     21  H   A   B  29      29.951  27.073  32.059  0.00  0.00    +0.000 HD
ENDBRANCH  18  20
BRANCH  18  22
ATOM     22  O5' A   B  29      30.165  23.736  31.813  0.00  0.00    +0.000 OA
BRANCH  22  23
ATOM     23  C5' A   B  29      29.526  23.300  33.010  0.00  0.00    +0.000 C 
BRANCH  23  24
ATOM     24  C4' A   B  29      29.650  21.805  33.192  0.00  0.00    +0.000 C 
ATOM     25  O4' A   B  29      29.074  21.117  32.053  0.00  0.00    +0.000 OA
ATOM     26  C3' A   B  29      31.067  21.255  33.264  0.00  0.00    +0.000 C 
ATOM     27  C2' A   B  29      30.851  19.792  32.901  0.00  0.00    +0.000 C 
ATOM     28  C1' A   B  29      29.784  19.914  31.813  0.00  0.00    +0.000 C 
BRANCH  28  29
ATOM     29  N9  A   B  29      30.374  19.969  30.465  0.00  0.00    +0.000 N 
ATOM     30  C8  A   B  29      30.557  21.066  29.660  0.00  0.00    +0.000 A 
ATOM     31  N7  A   B  29      31.117  20.782  28.504  0.00  0.00    +0.000 NA
ATOM     32  C5  A   B  29      31.318  19.407  28.556  0.00  0.00    +0.000 A 
ATOM     33  C6  A   B  29      31.873  18.494  27.647  0.00  0.00    +0.000 A 
ATOM     34  N1  A   B  29      31.925  17.194  28.006  0.00  0.00    +0.000 NA
ATOM     35  C2  A   B  29      31.448  16.839  29.208  0.00  0.00    +0.000 A 
ATOM     36  N3  A   B  29      30.898  17.608  30.153  0.00  0.00    +0.000 NA
ATOM     37  C4  A   B  29      30.865  18.895  29.758  0.00  0.00    +0.000 A 
BRANCH  33  38
ATOM     38  N6  A   B  29      32.355  18.845  26.446  0.00  0.00    +0.000 N 
ATOM     39  H   A   B  29      32.734  18.160  25.848  0.00  0.00    +0.000 HD
ATOM     40  H   A   B  29      32.330  19.787  26.162  0.00  0.00    +0.000 HD
ENDBRANCH  33  38
ENDBRANCH  28  29
BRANCH  27  41
ATOM     41  O2' A   B  29      30.329  19.048  33.986  0.00  0.00    +0.000 OA
ATOM     42  H   A   B  29      29.504  19.457  34.292  0.00  0.00    +0.000 HD
ENDBRANCH  27  41
BRANCH  26  43
ATOM     43  O3' A   B  29      31.665  21.435  34.540  0.00  0.00    +0.000 OA
BRANCH  43  44
ATOM     44  P   A   B  30      33.253  21.572  34.694  0.00  0.00    +0.000 P 
ATOM     45  OP2 A   B  30      33.762  22.394  33.564  0.00  0.00    +0.000 OA
BRANCH  44  46
ATOM     46  OP1 A   B  30      33.550  21.982  36.088  0.00  0.00    +0.000 OA
ATOM     47  H   A   B  30      34.509  22.071  36.202  0.00  0.00    +0.000 HD
ENDBRANCH  44  46
BRANCH  44  48
ATOM     48  O5' A   B  30      33.775  20.078  34.487  0.00  0.00    +0.000 OA
BRANCH  48  49
ATOM     49  C5' A   B  30      33.447  19.053  35.416  0.00  0.00    +0.000 C 
BRANCH  49  50
ATOM     50  C4' A   B  30      33.747  17.681  34.855  0.00  0.00    +0.000 C 
ATOM     51  O4' A   B  30      33.067  17.509  33.586  0.00  0.00    +0.000 OA
ATOM     52  C3' A   B  30      35.204  17.400  34.527  0.00  0.00    +0.000 C 
ATOM     53  C2' A   B  30      35.086  16.267  33.515  0.00  0.00    +0.000 C 
ATOM     54  C1' A   B  30      33.849  16.698  32.727  0.00  0.00    +0.000 C 
BRANCH  54  55
ATOM     55  N9  A   B  30      34.192  17.477  31.523  0.00  0.00    +0.000 N 
ATOM     56  C8  A   B  30      34.109  18.835  31.337  0.00  0.00    +0.000 A 
ATOM     57  N7  A   B  30      34.489  19.227  30.141  0.00  0.00    +0.000 NA
ATOM     58  C5  A   B  30      34.848  18.047  29.499  0.00  0.00    +0.000 A 
ATOM     59  C6  A   B  30      35.336  17.778  28.211  0.00  0.00    +0.000 A 
ATOM     60  N1  A   B  30      35.595  16.494  27.886  0.00  0.00    +0.000 NA
ATOM     61  C2  A   B  30      35.376  15.541  28.803  0.00  0.00    +0.000 A 
ATOM     62  N3  A   B  30      34.915  15.669  30.050  0.00  0.00    +0.000 NA
ATOM     63  C4  A   B  30      34.671  16.962  30.338  0.00  0.00    +0.000 A 
BRANCH  59  64
ATOM     64  N6  A   B  30      35.561  18.727  27.290  0.00  0.00    +0.000 N 
ATOM     65  H   A   B  30      35.904  18.479  26.401  0.00  0.00    +0.000 HD
ATOM     66  H   A   B  30      35.383  19.672  27.503  0.00  0.00    +0.000 HD
ENDBRANCH  59  64
ENDBRANCH  54  55
BRANCH  53  67
ATOM     67  O2' A   B  30      34.832  15.022  34.141  0.00  0.00    +0.000 OA
ATOM     68  H   A   B  30      34.030  15.090  34.683  0.00  0.00    +0.000 HD
ENDBRANCH  53  67
BRANCH  52  69
ATOM     69  O3' A   B  30      35.963  17.049  35.675  0.00  0.00    +0.000 OA
BRANCH  69  70
ATOM     70  P   A   B  31      37.527  17.340  35.740  0.00  0.00    +0.000 P 
ATOM     71  OP2 A   B  31      37.796  18.648  35.082  0.00  0.00    +0.000 OA
BRANCH  70  72
ATOM     72  OP1 A   B  31      37.973  17.116  37.136  0.00  0.00    +0.000 OA
ATOM     73  H   A   B  31      38.925  17.287  37.203  0.00  0.00    +0.000 HD
ENDBRANCH  70  72
BRANCH  70  74
ATOM     74  O5' A   B  31      38.153  16.194  34.828  0.00  0.00    +0.000 OA
BRANCH  74  75
ATOM     75  C5' A   B  31      38.029  14.823  35.185  0.00  0.00    +0.000 C 
BRANCH  75  76
ATOM     76  C4' A   B  31      38.443  13.923  34.045  0.00  0.00    +0.000 C 
ATOM     77  O4' A   B  31      37.617  14.194  32.883  0.00  0.00    +0.000 OA
ATOM     78  C3' A   B  31      39.862  14.114  33.540  0.00  0.00    +0.000 C 
ATOM     79  C2' A   B  31      39.775  13.565  32.122  0.00  0.00    +0.000 C 
ATOM     80  C1' A   B  31      38.383  14.043  31.701  0.00  0.00    +0.000 C 
BRANCH  80  81
ATOM     81  N9  A   B  31      38.411  15.336  30.994  0.00  0.00    +0.000 N 
ATOM     82  C8  A   B  31      38.117  16.580  31.496  0.00  0.00    +0.000 A 
ATOM     83  N7  A   B  31      38.226  17.545  30.613  0.00  0.00    +0.000 NA
ATOM     84  C5  A   B  31      38.620  16.892  29.451  0.00  0.00    +0.000 A 
ATOM     85  C6  A   B  31      38.903  17.354  28.157  0.00  0.00    +0.000 A 
ATOM     86  N1  A   B  31      39.269  16.445  27.228  0.00  0.00    +0.000 NA
ATOM     87  C2  A   B  31      39.342  15.154  27.584  0.00  0.00    +0.000 A 
ATOM     88  N3  A   B  31      39.096  14.598  28.770  0.00  0.00    +0.000 NA
ATOM     89  C4  A   B  31      38.738  15.533  29.672  0.00  0.00    +0.000 A 
BRANCH  85  90
ATOM     90  N6  A   B  31      38.834  18.643  27.798  0.00  0.00    +0.000 N 
ATOM     91  H   A   B  31      39.044  18.908  26.874  0.00  0.00    +0.000 HD
ATOM     92  H   A   B  31      38.573  19.325  28.459  0.00  0.00    +0.000 HD
ENDBRANCH  85  90
ENDBRANCH  80  81
BRANCH  79  93
ATOM     93  O2' A   B  31      39.812  12.150  32.101  0.00  0.00    +0.000 OA
ATOM     94  H   A   B  31      39.098  11.800  32.656  0.00  0.00    +0.000 HD
ENDBRANCH  79  93
BRANCH  78  95
ATOM     95  O3' A   B  31      40.816  13.432  34.348  0.00  0.00    +0.000 OA
BRANCH  95  96
ATOM     96  P   A   B  32      42.282  14.024  34.573  0.00  0.00    +0.000 P 
ATOM     97  OP2 A   B  32      42.192  15.508  34.620  0.00  0.00    +0.000 OA
BRANCH  96  98
ATOM     98  OP1 A   B  32      42.914  13.292  35.696  0.00  0.00    +0.000 OA
ATOM     99  H   A   B  32      42.894  12.340  35.513  0.00  0.00    +0.000 HD
ENDBRANCH  96  98
BRANCH  96 100
ATOM    100  O5' A   B  32      43.036  13.626  33.231  0.00  0.00    +0.000 OA
BRANCH 100 101
ATOM    101  C5' A   B  32      43.243  12.263  32.887  0.00  0.00    +0.000 C 
BRANCH 101 102
ATOM    102  C4' A   B  32      43.697  12.129  31.455  0.00  0.00    +0.000 C 
ATOM    103  O4' A   B  32      42.662  12.621  30.565  0.00  0.00    +0.000 OA
ATOM    104  C3' A   B  32      44.923  12.944  31.079  0.00  0.00    +0.000 C 
ATOM    105  C2' A   B  32      44.765  13.085  29.569  0.00  0.00    +0.000 C 
ATOM    106  C1' A   B  32      43.250  13.259  29.447  0.00  0.00    +0.000 C 
BRANCH 106 107
ATOM    107  N9  A   B  32      42.843  14.676  29.453  0.00  0.00    +0.000 N 
ATOM    108  C8  A   B  32      42.381  15.414  30.514  0.00  0.00    +0.000 A 
ATOM    109  N7  A   B  32      42.091  16.657  30.203  0.00  0.00    +0.000 NA
ATOM    110  C5  A   B  32      42.388  16.742  28.848  0.00  0.00    +0.000 A 
ATOM    111  C6  A   B  32      42.299  17.794  27.926  0.00  0.00    +0.000 A 
ATOM    112  N1  A   B  32      42.672  17.549  26.653  0.00  0.00    +0.000 NA
ATOM    113  C2  A   B  32      43.102  16.322  26.334  0.00  0.00    +0.000 A 
ATOM    114  N3  A   B  32      43.229  15.251  27.113  0.00  0.00    +0.000 NA
ATOM    115  C4  A   B  32      42.851  15.529  28.375  0.00  0.00    +0.000 A 
BRANCH 111 116
ATOM    116  N6  A   B  32      41.871  19.023  28.243  0.00  0.00    +0.000 N 
ATOM    117  H   A   B  32      41.830  19.723  27.552  0.00  0.00    +0.000 HD
ATOM    118  H   A   B  32      41.598  19.226  29.167  0.00  0.00    +0.000 HD
ENDBRANCH 111 116
ENDBRANCH 106 107
BRANCH 105 119
ATOM    119  O2' A   B  32      45.157  11.908  28.889  0.00  0.00    +0.000 OA
ATOM    120  H   A   B  32      44.649  11.154  29.228  0.00  0.00    +0.000 HD
ENDBRANCH 105 119
BRANCH 104 121
ATOM    121  O3' A   B  32      46.136  12.306  31.463  0.00  0.00    +0.000 OA
BRANCH 121 122
ATOM    122  P   U   B  33      47.376  13.155  32.005  0.00  0.00    +0.000 P 
ATOM    123  OP1 U   B  33      48.400  12.213  32.511  0.00  0.00    +0.000 OA
BRANCH 122 124
ATOM    124  OP2 U   B  33      46.864  14.229  32.893  0.00  0.00    +0.000 OA
ATOM    125  H   U   B  33      46.204  14.756  32.416  0.00  0.00    +0.000 HD
ENDBRANCH 122 124
BRANCH 122 126
ATOM    126  O5' U   B  33      47.932  13.839  30.677  0.00  0.00    +0.000 OA
BRANCH 126 127
ATOM    127  C5' U   B  33      48.452  13.054  29.614  0.00  0.00    +0.000 C 
BRANCH 127 128
ATOM    128  C4' U   B  33      48.635  13.873  28.360  0.00  0.00    +0.000 C 
ATOM    129  O4' U   B  33      47.348  14.359  27.897  0.00  0.00    +0.000 OA
ATOM    130  C3' U   B  33      49.466  15.131  28.512  0.00  0.00    +0.000 C 
ATOM    131  C2' U   B  33      49.005  15.955  27.316  0.00  0.00    +0.000 C 
ATOM    132  C1' U   B  33      47.509  15.629  27.291  0.00  0.00    +0.000 C 
BRANCH 132 133
ATOM    133  N1  U   B  33      46.708  16.621  28.036  0.00  0.00    +0.000 N 
ATOM    134  C2  U   B  33      46.350  17.778  27.366  0.00  0.00    +0.000 A 
ATOM    135  O2  U   B  33      46.659  18.001  26.206  0.00  0.00    +0.000 OA
ATOM    136  N3  U   B  33      45.607  18.674  28.101  0.00  0.00    +0.000 N 
ATOM    137  C4  U   B  33      45.200  18.531  29.412  0.00  0.00    +0.000 A 
ATOM    138  O4  U   B  33      44.539  19.428  29.941  0.00  0.00    +0.000 OA
ATOM    139  C5  U   B  33      45.612  17.315  30.036  0.00  0.00    +0.000 A 
ATOM    140  C6  U   B  33      46.335  16.423  29.344  0.00  0.00    +0.000 A 
ATOM    141  H   U   B  33      45.338  19.503  27.644  0.00  0.00    +0.000 HD
ENDBRANCH 132 133
BRANCH 131 142
ATOM    142  O2' U   B  33      49.598  15.515  26.110  0.00  0.00    +0.000 OA
ATOM    143  H   U   B  33      49.406  14.573  25.980  0.00  0.00    +0.000 HD
ENDBRANCH 131 142
BRANCH 130 144
ATOM    144  O3' U   B  33      50.862  14.872  28.522  0.00  0.00    +0.000 OA
BRANCH 144 145
ATOM    145  P   A   B  34      51.847  15.783  29.401  0.00  0.00    +0.000 P 
ATOM    146  OP1 A   B  34      53.187  15.156  29.378  0.00  0.00    +0.000 OA
BRANCH 145 147
ATOM    147  OP2 A   B  34      51.199  16.078  30.700  0.00  0.00    +0.000 OA
ATOM    148  H   A   B  34      50.332  16.485  30.544  0.00  0.00    +0.000 HD
ENDBRANCH 145 147
BRANCH 145 149
ATOM    149  O5' A   B  34      51.905  17.132  28.562  0.00  0.00    +0.000 OA
BRANCH 149 150
ATOM    150  C5' A   B  34      52.459  17.151  27.255  0.00  0.00    +0.000 C 
BRANCH 150 151
ATOM    151  C4' A   B  34      52.198  18.467  26.565  0.00  0.00    +0.000 C 
ATOM    152  O4' A   B  34      50.773  18.658  26.384  0.00  0.00    +0.000 OA
ATOM    153  C3' A   B  34      52.636  19.709  27.318  0.00  0.00    +0.000 C 
ATOM    154  C2' A   B  34      51.779  20.789  26.670  0.00  0.00    +0.000 C 
ATOM    155  C1' A   B  34      50.466  20.038  26.455  0.00  0.00    +0.000 C 
BRANCH 155 156
ATOM    156  N9  A   B  34      49.510  20.256  27.556  0.00  0.00    +0.000 N 
ATOM    157  C8  A   B  34      49.265  19.457  28.643  0.00  0.00    +0.000 A 
ATOM    158  N7  A   B  34      48.346  19.936  29.449  0.00  0.00    +0.000 NA
ATOM    159  C5  A   B  34      47.967  21.132  28.853  0.00  0.00    +0.000 A 
ATOM    160  C6  A   B  34      47.030  22.116  29.212  0.00  0.00    +0.000 A 
ATOM    161  N6  A   B  34      46.272  22.052  30.314  0.00  0.00    +0.000 N 
ATOM    162  N1  A   B  34      46.895  23.184  28.400  0.00  0.00    +0.000 NA
ATOM    163  C2  A   B  34      47.654  23.254  27.299  0.00  0.00    +0.000 A 
ATOM    164  N3  A   B  34      48.566  22.390  26.853  0.00  0.00    +0.000 NA
ATOM    165  C4  A   B  34      48.675  21.339  27.686  0.00  0.00    +0.000 A 
ATOM    166  H   A   B  34      45.632  22.773  30.514  0.00  0.00    +0.000 HD
ATOM    167  H   A   B  34      46.355  21.284  30.925  0.00  0.00    +0.000 HD
ENDBRANCH 155 156
BRANCH 154 168
ATOM    168  O2' A   B  34      52.299  21.193  25.417  0.00  0.00    +0.000 OA
ATOM    169  H   A   B  34      52.385  20.420  24.838  0.00  0.00    +0.000 HD
ENDBRANCH 154 168
BRANCH 153 170
ATOM    170  O3' A   B  34      54.032  19.952  27.211  0.00  0.00    +0.000 OA
BRANCH 170 171
ATOM    171  P   A   B  35      54.813  20.659  28.415  0.00  0.00    +0.000 P 
ATOM    172  OP1 A   B  35      56.169  21.006  27.926  0.00  0.00    +0.000 OA
BRANCH 171 173
ATOM    173  OP2 A   B  35      54.663  19.840  29.644  0.00  0.00    +0.000 OA
ATOM    174  H   A   B  35      55.163  19.015  29.545  0.00  0.00    +0.000 HD
ENDBRANCH 171 173
BRANCH 171 175
ATOM    175  O5' A   B  35      53.978  21.993  28.630  0.00  0.00    +0.000 OA
BRANCH 175 176
ATOM    176  C5' A   B  35      54.602  23.264  28.571  0.00  0.00    +0.000 C 
BRANCH 176 177
ATOM    177  C4' A   B  35      53.694  24.306  27.982  0.00  0.00    +0.000 C 
ATOM    178  O4' A   B  35      52.356  23.771  27.791  0.00  0.00    +0.000 OA
ATOM    179  C3' A   B  35      53.468  25.542  28.841  0.00  0.00    +0.000 C 
ATOM    180  C2' A   B  35      52.158  26.084  28.290  0.00  0.00    +0.000 C 
ATOM    181  C1' A   B  35      51.395  24.785  28.026  0.00  0.00    +0.000 C 
BRANCH 181 182
ATOM    182  N9  A   B  35      50.562  24.381  29.172  0.00  0.00    +0.000 N 
ATOM    183  C8  A   B  35      50.682  23.255  29.949  0.00  0.00    +0.000 A 
ATOM    184  N7  A   B  35      49.781  23.173  30.903  0.00  0.00    +0.000 NA
ATOM    185  C5  A   B  35      49.022  24.324  30.742  0.00  0.00    +0.000 A 
ATOM    186  C6  A   B  35      47.913  24.830  31.439  0.00  0.00    +0.000 A 
ATOM    187  N6  A   B  35      47.354  24.214  32.488  0.00  0.00    +0.000 N 
ATOM    188  N1  A   B  35      47.390  26.004  31.028  0.00  0.00    +0.000 NA
ATOM    189  C2  A   B  35      47.950  26.626  29.980  0.00  0.00    +0.000 A 
ATOM    190  N3  A   B  35      48.989  26.247  29.242  0.00  0.00    +0.000 NA
ATOM    191  C4  A   B  35      49.485  25.076  29.680  0.00  0.00    +0.000 A 
ATOM    192  H   A   B  35      47.718  23.356  32.806  0.00  0.00    +0.000 HD
ATOM    193  H   A   B  35      46.579  24.619  32.941  0.00  0.00    +0.000 HD
ENDBRANCH 181 182
BRANCH 180 194
ATOM    194  O2' A   B  35      52.343  26.778  27.070  0.00  0.00    +0.000 OA
ATOM    195  H   A   B  35      52.778  26.194  26.429  0.00  0.00    +0.000 HD
ENDBRANCH 180 194
BRANCH 179 196
ATOM    196  O3' A   B  35      54.551  26.461  28.754  0.00  0.00    +0.000 OA
BRANCH 196 197
ATOM    197  P   U   B  36      55.202  27.037  30.097  0.00  0.00    +0.000 P 
ATOM    198  OP1 U   B  36      56.335  27.904  29.694  0.00  0.00    +0.000 OA
BRANCH 197 199
ATOM    199  OP2 U   B  36      55.428  25.917  31.049  0.00  0.00    +0.000 OA
ATOM    200  H   U   B  36      56.134  25.343  30.712  0.00  0.00    +0.000 HD
ENDBRANCH 197 199
BRANCH 197 201
ATOM    201  O5' U   B  36      54.041  27.955  30.682  0.00  0.00    +0.000 OA
BRANCH 201 202
ATOM    202  C5' U   B  36      53.536  29.059  29.936  0.00  0.00    +0.000 C 
BRANCH 202 203
ATOM    203  C4' U   B  36      52.316  29.652  30.595  0.00  0.00    +0.000 C 
ATOM    204  O4' U   B  36      51.227  28.692  30.577  0.00  0.00    +0.000 OA
ATOM    205  C3' U   B  36      52.468  29.999  32.060  0.00  0.00    +0.000 C 
ATOM    206  C2' U   B  36      51.023  30.011  32.544  0.00  0.00    +0.000 C 
ATOM    207  C1' U   B  36      50.434  28.844  31.743  0.00  0.00    +0.000 C 
BRANCH 207 208
ATOM    208  N1  U   B  36      50.445  27.570  32.498  0.00  0.00    +0.000 N 
ATOM    209  C2  U   B  36      49.426  27.364  33.412  0.00  0.00    +0.000 A 
ATOM    210  O2  U   B  36      48.535  28.175  33.616  0.00  0.00    +0.000 OA
ATOM    211  N3  U   B  36      49.482  26.168  34.090  0.00  0.00    +0.000 N 
ATOM    212  C4  U   B  36      50.433  25.175  33.950  0.00  0.00    +0.000 A 
ATOM    213  O4  U   B  36      50.344  24.153  34.636  0.00  0.00    +0.000 OA
ATOM    214  C5  U   B  36      51.452  25.461  32.987  0.00  0.00    +0.000 A 
ATOM    215  C6  U   B  36      51.422  26.622  32.310  0.00  0.00    +0.000 A 
ATOM    216  H   U   B  36      48.767  26.002  34.746  0.00  0.00    +0.000 HD
ENDBRANCH 207 208
BRANCH 206 217
ATOM    217  O2' U   B  36      50.361  31.208  32.183  0.00  0.00    +0.000 OA
ATOM    218  H   U   B  36      50.413  31.329  31.222  0.00  0.00    +0.000 HD
ENDBRANCH 206 217
BRANCH 205 219
ATOM    219  O3' U   B  36      53.148  31.233  32.258  0.00  0.00    +0.000 OA
BRANCH 219 220
ATOM    220  P   A   B  37      54.127  31.411  33.523  0.00  0.00    +0.000 P 
ATOM    221  OP1 A   B  37      55.052  32.528  33.206  0.00  0.00    +0.000 OA
BRANCH 220 222
ATOM    222  OP2 A   B  37      54.678  30.085  33.900  0.00  0.00    +0.000 OA
ATOM    223  H   A   B  37      55.279  29.775  33.204  0.00  0.00    +0.000 HD
ENDBRANCH 220 222
BRANCH 220 224
ATOM    224  O5' A   B  37      53.152  31.882  34.683  0.00  0.00    +0.000 OA
BRANCH 224 225
ATOM    225  C5' A   B  37      52.510  33.150  34.618  0.00  0.00    +0.000 C 
BRANCH 225 226
ATOM    226  C4' A   B  37      51.566  33.339  35.778  0.00  0.00    +0.000 C 
ATOM    227  O4' A   B  37      50.444  32.430  35.655  0.00  0.00    +0.000 OA
ATOM    228  C3' A   B  37      52.140  33.032  37.151  0.00  0.00    +0.000 C 
ATOM    229  C2' A   B  37      50.887  32.749  37.972  0.00  0.00    +0.000 C 
ATOM    230  C1' A   B  37      50.014  32.028  36.943  0.00  0.00    +0.000 C 
BRANCH 230 231
ATOM    231  N9  A   B  37      50.126  30.565  37.033  0.00  0.00    +0.000 N 
ATOM    232  C8  A   B  37      50.937  29.726  36.316  0.00  0.00    +0.000 A 
ATOM    233  N7  A   B  37      50.804  28.458  36.631  0.00  0.00    +0.000 NA
ATOM    234  C5  A   B  37      49.836  28.466  37.629  0.00  0.00    +0.000 A 
ATOM    235  C6  A   B  37      49.244  27.436  38.382  0.00  0.00    +0.000 A 
ATOM    236  N6  A   B  37      49.558  26.141  38.248  0.00  0.00    +0.000 N 
ATOM    237  N1  A   B  37      48.311  27.780  39.292  0.00  0.00    +0.000 NA
ATOM    238  C2  A   B  37      47.995  29.079  39.432  0.00  0.00    +0.000 A 
ATOM    239  N3  A   B  37      48.480  30.134  38.781  0.00  0.00    +0.000 NA
ATOM    240  C4  A   B  37      49.410  29.753  37.882  0.00  0.00    +0.000 A 
ATOM    241  H   A   B  37      50.236  25.864  37.590  0.00  0.00    +0.000 HD
ATOM    242  H   A   B  37      49.110  25.466  38.807  0.00  0.00    +0.000 HD
ENDBRANCH 230 231
BRANCH 229 243
ATOM    243  O2' A   B  37      50.239  33.945  38.379  0.00  0.00    +0.000 OA
ATOM    244  H   A   B  37      50.032  34.482  37.598  0.00  0.00    +0.000 HD
ENDBRANCH 229 243
BRANCH 228 245
ATOM    245  O3' A   B  37      52.920  34.106  37.669  0.00  0.00    +0.000 OA
BRANCH 245 246
ATOM    246  P   U   B  38      54.242  33.803  38.533  0.00  0.00    +0.000 P 
ATOM    247  OP2 U   B  38      54.961  32.659  37.917  0.00  0.00    +0.000 OA
BRANCH 246 248
ATOM    248  OP1 U   B  38      54.939  35.096  38.723  0.00  0.00    +0.000 OA
ATOM    249  H   U   B  38      55.291  35.401  37.872  0.00  0.00    +0.000 HD
ENDBRANCH 246 248
BRANCH 246 250
ATOM    250  O5' U   B  38      53.670  33.318  39.944  0.00  0.00    +0.000 OA
BRANCH 250 251
ATOM    251  C5' U   B  38      52.875  34.191  40.745  0.00  0.00    +0.000 C 
BRANCH 251 252
ATOM    252  C4' U   B  38      52.210  33.433  41.874  0.00  0.00    +0.000 C 
ATOM    253  O4' U   B  38      51.334  32.417  41.320  0.00  0.00    +0.000 OA
ATOM    254  C3' U   B  38      53.141  32.659  42.783  0.00  0.00    +0.000 C 
ATOM    255  C2' U   B  38      52.224  31.593  43.371  0.00  0.00    +0.000 C 
ATOM    256  C1' U   B  38      51.304  31.291  42.177  0.00  0.00    +0.000 C 
BRANCH 256 257
ATOM    257  N1  U   B  38      51.717  30.092  41.412  0.00  0.00    +0.000 N 
ATOM    258  C2  U   B  38      51.226  28.872  41.833  0.00  0.00    +0.000 A 
ATOM    259  O2  U   B  38      50.476  28.746  42.788  0.00  0.00    +0.000 OA
ATOM    260  N3  U   B  38      51.643  27.788  41.091  0.00  0.00    +0.000 N 
ATOM    261  C4  U   B  38      52.482  27.803  39.993  0.00  0.00    +0.000 A 
ATOM    262  O4  U   B  38      52.768  26.742  39.438  0.00  0.00    +0.000 OA
ATOM    263  C5  U   B  38      52.944  29.103  39.620  0.00  0.00    +0.000 A 
ATOM    264  C6  U   B  38      52.551  30.179  40.324  0.00  0.00    +0.000 A 
ATOM    265  H   U   B  38      51.307  26.907  41.374  0.00  0.00    +0.000 HD
ENDBRANCH 256 257
BRANCH 255 266
ATOM    266  O2' U   B  38      51.448  32.101  44.445  0.00  0.00    +0.000 OA
ATOM    267  H   U   B  38      50.941  32.871  44.142  0.00  0.00    +0.000 HD
ENDBRANCH 255 266
BRANCH 254 268
ATOM    268  O3' U   B  38      53.737  33.492  43.780  0.00  0.00    +0.000 OA
BRANCH 268 269
ATOM    269  P   U   B  39      55.274  33.881  43.746  0.00  0.00    +0.000 P 
ATOM    270  OP2 U   B  39      55.517  34.781  42.598  0.00  0.00    +0.000 OA
BRANCH 269 271
ATOM    271  OP1 U   B  39      55.697  34.305  45.112  0.00  0.00    +0.000 OA
ATOM    272  H   U   B  39      56.637  34.545  45.100  0.00  0.00    +0.000 HD
ENDBRANCH 269 271
BRANCH 269 273
ATOM    273  O5' U   B  39      55.966  32.482  43.417  0.00  0.00    +0.000 OA
BRANCH 273 274
ATOM    274  C5' U   B  39      56.397  31.619  44.462  0.00  0.00    +0.000 C 
BRANCH 274 275
ATOM    275  C4' U   B  39      57.178  30.457  43.897  0.00  0.00    +0.000 C 
ATOM    276  O4' U   B  39      57.798  30.847  42.644  0.00  0.00    +0.000 OA
ATOM    277  C3' U   B  39      58.338  29.991  44.750  0.00  0.00    +0.000 C 
ATOM    278  C2' U   B  39      59.288  29.360  43.748  0.00  0.00    +0.000 C 
ATOM    279  C1' U   B  39      59.073  30.269  42.526  0.00  0.00    +0.000 C 
BRANCH 279 280
ATOM    280  N1  U   B  39      60.079  31.349  42.424  0.00  0.00    +0.000 N 
ATOM    281  C2  U   B  39      61.348  31.026  41.993  0.00  0.00    +0.000 A 
ATOM    282  O2  U   B  39      61.686  29.890  41.699  0.00  0.00    +0.000 OA
ATOM    283  N3  U   B  39      62.224  32.089  41.917  0.00  0.00    +0.000 N 
ATOM    284  C4  U   B  39      61.961  33.413  42.219  0.00  0.00    +0.000 A 
ATOM    285  O4  U   B  39      62.853  34.248  42.099  0.00  0.00    +0.000 OA
ATOM    286  C5  U   B  39      60.632  33.668  42.653  0.00  0.00    +0.000 A 
ATOM    287  C6  U   B  39      59.749  32.654  42.735  0.00  0.00    +0.000 A 
ATOM    288  H   U   B  39      63.138  31.882  41.614  0.00  0.00    +0.000 HD
ENDBRANCH 279 280
BRANCH 278 289
ATOM    289  O2' U   B  39      58.900  28.040  43.416  0.00  0.00    +0.000 OA
ATOM    290  H   U   B  39      57.989  28.045  43.084  0.00  0.00    +0.000 HD
ENDBRANCH 278 289
BRANCH 277 291
ATOM    291  O3' U   B  39      57.902  29.080  45.751  0.00  0.00    +0.000 OA
BRANCH 291 292
ATOM    292  P   C   B  40      58.061  29.283  47.261  0.00  0.00    +0.000 P 
ATOM    293  OP2 C   B  40      59.305  30.030  47.565  0.00  0.00    +0.000 OA
BRANCH 292 294
ATOM    294  OP1 C   B  40      56.760  29.792  47.783  0.00  0.00    +0.000 OA
ATOM    295  H   C   B  40      56.628  30.706  47.486  0.00  0.00    +0.000 HD
ENDBRANCH 292 294
BRANCH 292 296
ATOM    296  O5' C   B  40      58.259  27.788  47.756  0.00  0.00    +0.000 OA
BRANCH 296 297
ATOM    297  C5' C   B  40      59.347  26.990  47.304  0.00  0.00    +0.000 C 
BRANCH 297 298
ATOM    298  C4' C   B  40      59.322  25.657  47.998  0.00  0.00    +0.000 C 
ATOM    299  O4' C   B  40      59.224  25.874  49.422  0.00  0.00    +0.000 OA
ATOM    300  C3' C   B  40      58.147  24.758  47.669  0.00  0.00    +0.000 C 
ATOM    301  C2' C   B  40      58.029  23.892  48.905  0.00  0.00    +0.000 C 
ATOM    302  C1' C   B  40      58.386  24.893  50.002  0.00  0.00    +0.000 C 
BRANCH 302 303
ATOM    303  N1  C   B  40      57.199  25.565  50.579  0.00  0.00    +0.000 N 
ATOM    304  C2  C   B  40      56.377  24.851  51.450  0.00  0.00    +0.000 A 
ATOM    305  O2  C   B  40      56.645  23.668  51.718  0.00  0.00    +0.000 OA
ATOM    306  N3  C   B  40      55.295  25.472  51.992  0.00  0.00    +0.000 NA
ATOM    307  C4  C   B  40      55.031  26.745  51.691  0.00  0.00    +0.000 A 
ATOM    308  N4  C   B  40      53.964  27.312  52.252  0.00  0.00    +0.000 N 
ATOM    309  C5  C   B  40      55.856  27.495  50.809  0.00  0.00    +0.000 A 
ATOM    310  C6  C   B  40      56.922  26.872  50.282  0.00  0.00    +0.000 A 
ATOM    311  H   C   B  40      53.742  28.250  52.051  0.00  0.00    +0.000 HD
ATOM    312  H   C   B  40      53.398  26.793  52.868  0.00  0.00    +0.000 HD
ENDBRANCH 302 303
BRANCH 301 313
ATOM    313  O2' C   B  40      58.972  22.841  48.906  0.00  0.00    +0.000 OA
ATOM    314  H   C   B  40      59.866  23.208  48.822  0.00  0.00    +0.000 HD
ENDBRANCH 301 313
BRANCH 300 315
ATOM    315  O3' C   B  40      58.356  24.001  46.481  0.00  0.00    +0.000 OA
BRANCH 315 316
ATOM    316  P   U   B  41      57.156  23.771  45.450  0.00  0.00    +0.000 P 
ATOM    317  OP1 U   B  41      57.696  23.003  44.303  0.00  0.00    +0.000 OA
BRANCH 316 318
ATOM    318  OP2 U   B  41      56.493  25.078  45.224  0.00  0.00    +0.000 OA
ATOM    319  H   U   B  41      55.759  24.965  44.600  0.00  0.00    +0.000 HD
ENDBRANCH 316 318
BRANCH 316 320
ATOM    320  O5' U   B  41      56.140  22.826  46.246  0.00  0.00    +0.000 OA
BRANCH 320 321
ATOM    321  C5' U   B  41      56.499  21.497  46.613  0.00  0.00    +0.000 C 
BRANCH 321 322
ATOM    322  C4' U   B  41      55.489  20.903  47.566  0.00  0.00    +0.000 C 
ATOM    323  O4' U   B  41      55.443  21.688  48.783  0.00  0.00    +0.000 OA
ATOM    324  C3' U   B  41      54.051  20.900  47.084  0.00  0.00    +0.000 C 
ATOM    325  C2' U   B  41      53.266  20.829  48.385  0.00  0.00    +0.000 C 
ATOM    326  C1' U   B  41      54.127  21.711  49.296  0.00  0.00    +0.000 C 
BRANCH 326 327
ATOM    327  N1  U   B  41      53.651  23.110  49.339  0.00  0.00    +0.000 N 
ATOM    328  C2  U   B  41      52.576  23.397  50.157  0.00  0.00    +0.000 A 
ATOM    329  O2  U   B  41      52.008  22.555  50.836  0.00  0.00    +0.000 OA
ATOM    330  N3  U   B  41      52.180  24.718  50.159  0.00  0.00    +0.000 N 
ATOM    331  C4  U   B  41      52.743  25.754  49.438  0.00  0.00    +0.000 A 
ATOM    332  O4  U   B  41      52.273  26.886  49.545  0.00  0.00    +0.000 OA
ATOM    333  C5  U   B  41      53.847  25.376  48.616  0.00  0.00    +0.000 A 
ATOM    334  C6  U   B  41      54.257  24.097  48.598  0.00  0.00    +0.000 A 
ATOM    335  H   U   B  41      51.415  24.947  50.735  0.00  0.00    +0.000 HD
ENDBRANCH 326 327
BRANCH 325 336
ATOM    336  O2' U   B  41      53.230  19.514  48.917  0.00  0.00    +0.000 OA
ATOM    337  H   U   B  41      54.136  19.190  49.040  0.00  0.00    +0.000 HD
ENDBRANCH 325 336
BRANCH 324 338
ATOM    338  O3' U   B  41      53.772  19.814  46.205  0.00  0.00    +0.000 OA
BRANCH 338 339
ATOM    339  P   U   B  42      52.763  20.001  44.963  0.00  0.00    +0.000 P 
ATOM    340  OP1 U   B  42      52.863  18.786  44.118  0.00  0.00    +0.000 OA
BRANCH 339 341
ATOM    341  OP2 U   B  42      53.013  21.339  44.374  0.00  0.00    +0.000 OA
ATOM    342  H   U   B  42      52.417  21.478  43.622  0.00  0.00    +0.000 HD
ENDBRANCH 339 341
BRANCH 339 343
ATOM    343  O5' U   B  42      51.316  20.016  45.643  0.00  0.00    +0.000 OA
BRANCH 343 344
ATOM    344  C5' U   B  42      50.767  18.843  46.231  0.00  0.00    +0.000 C 
BRANCH 344 345
ATOM    345  C4' U   B  42      49.522  19.154  47.032  0.00  0.00    +0.000 C 
ATOM    346  O4' U   B  42      49.844  20.072  48.107  0.00  0.00    +0.000 OA
ATOM    347  C3' U   B  42      48.405  19.855  46.282  0.00  0.00    +0.000 C 
ATOM    348  C2' U   B  42      47.613  20.504  47.410  0.00  0.00    +0.000 C 
ATOM    349  C1' U   B  42      48.744  20.921  48.358  0.00  0.00    +0.000 C 
BRANCH 349 350
ATOM    350  N1  U   B  42      49.156  22.324  48.152  0.00  0.00    +0.000 N 
ATOM    351  C2  U   B  42      48.401  23.306  48.768  0.00  0.00    +0.000 A 
ATOM    352  O2  U   B  42      47.425  23.062  49.467  0.00  0.00    +0.000 OA
ATOM    353  N3  U   B  42      48.826  24.596  48.543  0.00  0.00    +0.000 N 
ATOM    354  C4  U   B  42      49.909  24.991  47.777  0.00  0.00    +0.000 A 
ATOM    355  O4  U   B  42      50.162  26.189  47.669  0.00  0.00    +0.000 OA
ATOM    356  C5  U   B  42      50.636  23.919  47.174  0.00  0.00    +0.000 A 
ATOM    357  C6  U   B  42      50.244  22.652  47.379  0.00  0.00    +0.000 A 
ATOM    358  H   U   B  42      48.305  25.313  48.972  0.00  0.00    +0.000 HD
ENDBRANCH 349 350
BRANCH 348 359
ATOM    359  O2' U   B  42      46.773  19.575  48.074  0.00  0.00    +0.000 OA
ATOM    360  H   U   B  42      47.306  18.835  48.403  0.00  0.00    +0.000 HD
ENDBRANCH 348 359
BRANCH 347 361
ATOM    361  O3' U   B  42      47.619  18.964  45.494  0.00  0.00    +0.000 OA
BRANCH 361 362
ATOM    362  P   A   B  43      47.059  19.405  44.031  0.00  0.00    +0.000 P 
ATOM    363  OP2 A   B  43      48.180  20.031  43.286  0.00  0.00    +0.000 OA
BRANCH 362 364
ATOM    364  OP1 A   B  43      46.342  18.250  43.444  0.00  0.00    +0.000 OA
ATOM    365  H   A   B  43      45.999  18.493  42.569  0.00  0.00    +0.000 HD
ENDBRANCH 362 364
BRANCH 362 366
ATOM    366  O5' A   B  43      45.992  20.544  44.359  0.00  0.00    +0.000 OA
BRANCH 366 367
ATOM    367  C5' A   B  43      44.765  20.235  45.013  0.00  0.00    +0.000 C 
BRANCH 367 368
ATOM    368  C4' A   B  43      44.110  21.482  45.563  0.00  0.00    +0.000 C 
ATOM    369  O4' A   B  43      45.036  22.166  46.442  0.00  0.00    +0.000 OA
ATOM    370  C3' A   B  43      43.728  22.536  44.534  0.00  0.00    +0.000 C 
ATOM    371  C2' A   B  43      43.710  23.810  45.365  0.00  0.00    +0.000 C 
ATOM    372  C1' A   B  43      44.879  23.565  46.313  0.00  0.00    +0.000 C 
BRANCH 372 373
ATOM    373  N9  A   B  43      46.139  24.130  45.802  0.00  0.00    +0.000 N 
ATOM    374  C8  A   B  43      47.160  23.475  45.159  0.00  0.00    +0.000 A 
ATOM    375  N7  A   B  43      48.161  24.253  44.822  0.00  0.00    +0.000 NA
ATOM    376  C5  A   B  43      47.770  25.507  45.274  0.00  0.00    +0.000 A 
ATOM    377  C6  A   B  43      48.394  26.764  45.228  0.00  0.00    +0.000 A 
ATOM    378  N1  A   B  43      47.741  27.812  45.770  0.00  0.00    +0.000 NA
ATOM    379  C2  A   B  43      46.537  27.600  46.327  0.00  0.00    +0.000 A 
ATOM    380  N3  A   B  43      45.852  26.464  46.436  0.00  0.00    +0.000 NA
ATOM    381  C4  A   B  43      46.531  25.442  45.881  0.00  0.00    +0.000 A 
BRANCH 377 382
ATOM    382  N6  A   B  43      49.594  26.976  44.669  0.00  0.00    +0.000 N 
ATOM    383  H   A   B  43      50.089  26.226  44.267  0.00  0.00    +0.000 HD
ATOM    384  H   A   B  43      49.980  27.882  44.660  0.00  0.00    +0.000 HD
ENDBRANCH 377 382
ENDBRANCH 372 373
BRANCH 371 385
ATOM    385  O2' A   B  43      42.517  23.938  46.124  0.00  0.00    +0.000 OA
ATOM    386  H   A   B  43      42.407  23.157  46.688  0.00  0.00    +0.000 HD
ENDBRANCH 371 385
BRANCH 370 387
ATOM    387  O3' A   B  43      42.479  22.267  43.911  0.00  0.00    +0.000 OA
BRANCH 387 388
ATOM    388  P   C   B  44      42.282  22.454  42.305  0.00  0.00    +0.000 P 
ATOM    389  OP2 C   B  44      43.432  21.811  41.614  0.00  0.00    +0.000 OA
BRANCH 388 390
ATOM    390  OP1 C   B  44      40.897  22.053  41.959  0.00  0.00    +0.000 OA
ATOM    391  H   C   B  44      40.759  22.157  41.005  0.00  0.00    +0.000 HD
ENDBRANCH 388 390
BRANCH 388 392
ATOM    392  O5' C   B  44      42.411  24.031  42.111  0.00  0.00    +0.000 OA
BRANCH 392 393
ATOM    393  C5' C   B  44      41.495  24.932  42.718  0.00  0.00    +0.000 C 
BRANCH 393 394
ATOM    394  C4' C   B  44      42.054  26.336  42.756  0.00  0.00    +0.000 C 
ATOM    395  O4' C   B  44      43.329  26.328  43.448  0.00  0.00    +0.000 OA
ATOM    396  C3' C   B  44      42.368  26.958  41.407  0.00  0.00    +0.000 C 
ATOM    397  C2' C   B  44      43.423  28.000  41.757  0.00  0.00    +0.000 C 
ATOM    398  C1' C   B  44      44.198  27.284  42.870  0.00  0.00    +0.000 C 
BRANCH 398 399
ATOM    399  N1  C   B  44      45.413  26.587  42.382  0.00  0.00    +0.000 N 
ATOM    400  C2  C   B  44      46.595  27.318  42.249  0.00  0.00    +0.000 A 
ATOM    401  O2  C   B  44      46.600  28.526  42.547  0.00  0.00    +0.000 OA
ATOM    402  N3  C   B  44      47.717  26.693  41.799  0.00  0.00    +0.000 NA
ATOM    403  C4  C   B  44      47.683  25.393  41.489  0.00  0.00    +0.000 A 
ATOM    404  N4  C   B  44      48.808  24.824  41.055  0.00  0.00    +0.000 N 
ATOM    405  C5  C   B  44      46.491  24.627  41.614  0.00  0.00    +0.000 A 
ATOM    406  C6  C   B  44      45.394  25.258  42.061  0.00  0.00    +0.000 A 
ATOM    407  H   C   B  44      48.817  23.868  40.818  0.00  0.00    +0.000 HD
ATOM    408  H   C   B  44      49.630  25.359  40.971  0.00  0.00    +0.000 HD
ENDBRANCH 398 399
BRANCH 397 409
ATOM    409  O2' C   B  44      42.845  29.182  42.283  0.00  0.00    +0.000 OA
ATOM    410  H   C   B  44      42.304  28.961  43.057  0.00  0.00    +0.000 HD
ENDBRANCH 397 409
BRANCH 396 411
ATOM    411  O3' C   B  44      41.208  27.527  40.804  0.00  0.00    +0.000 OA
BRANCH 411 412
ATOM    412  P   U   B  45      40.991  27.458  39.219  0.00  0.00    +0.000 P 
ATOM    413  OP2 U   B  45      41.563  26.186  38.705  0.00  0.00    +0.000 OA
BRANCH 412 414
ATOM    414  OP1 U   B  45      39.569  27.786  38.959  0.00  0.00    +0.000 OA
ATOM    415  H   U   B  45      39.399  27.754  38.005  0.00  0.00    +0.000 HD
ENDBRANCH 412 414
BRANCH 412 416
ATOM    416  O5' U   B  45      41.891  28.662  38.674  0.00  0.00    +0.000 OA
BRANCH 416 417
ATOM    417  C5' U   B  45      41.699  29.997  39.137  0.00  0.00    +0.000 C 
BRANCH 417 418
ATOM    418  C4' U   B  45      42.534  30.967  38.341  0.00  0.00    +0.000 C 
ATOM    419  O4' U   B  45      43.940  30.670  38.525  0.00  0.00    +0.000 OA
ATOM    420  C3' U   B  45      42.340  30.914  36.836  0.00  0.00    +0.000 C 
ATOM    421  C2' U   B  45      43.642  31.504  36.314  0.00  0.00    +0.000 C 
ATOM    422  C1' U   B  45      44.648  30.937  37.325  0.00  0.00    +0.000 C 
BRANCH 422 423
ATOM    423  N1  U   B  45      45.289  29.685  36.856  0.00  0.00    +0.000 N 
ATOM    424  C2  U   B  45      46.242  29.783  35.856  0.00  0.00    +0.000 A 
ATOM    425  O2  U   B  45      46.565  30.840  35.337  0.00  0.00    +0.000 OA
ATOM    426  N3  U   B  45      46.810  28.589  35.471  0.00  0.00    +0.000 N 
ATOM    427  C4  U   B  45      46.529  27.331  35.974  0.00  0.00    +0.000 A 
ATOM    428  O4  U   B  45      47.129  26.351  35.522  0.00  0.00    +0.000 OA
ATOM    429  C5  U   B  45      45.538  27.315  37.005  0.00  0.00    +0.000 A 
ATOM    430  C6  U   B  45      44.969  28.465  37.405  0.00  0.00    +0.000 A 
ATOM    431  H   U   B  45      47.490  28.636  34.761  0.00  0.00    +0.000 HD
ENDBRANCH 422 423
BRANCH 421 432
ATOM    432  O2' U   B  45      43.648  32.916  36.398  0.00  0.00    +0.000 OA
ATOM    433  H   U   B  45      43.480  33.186  37.314  0.00  0.00    +0.000 HD
ENDBRANCH 421 432
BRANCH 420 434
ATOM    434  O3' U   B  45      41.189  31.638  36.417  0.00  0.00    +0.000 OA
BRANCH 434 435
ATOM    435  P   U   B  46      40.246  31.080  35.269  0.00  0.00    +0.000 P 
ATOM    436  OP1 U   B  46      39.065  31.973  35.153  0.00  0.00    +0.000 OA
BRANCH 435 437
ATOM    437  OP2 U   B  46      40.047  29.622  35.488  0.00  0.00    +0.000 OA
ATOM    438  H   U   B  46      39.472  29.266  34.793  0.00  0.00    +0.000 HD
ENDBRANCH 435 437
BRANCH 435 439
ATOM    439  O5' U   B  46      41.139  31.269  33.966  0.00  0.00    +0.000 OA
BRANCH 439 440
ATOM    440  C5' U   B  46      41.529  32.568  33.525  0.00  0.00    +0.000 C 
BRANCH 440 441
ATOM    441  C4' U   B  46      42.624  32.494  32.491  0.00  0.00    +0.000 C 
ATOM    442  O4' U   B  46      43.805  31.876  33.073  0.00  0.00    +0.000 OA
ATOM    443  C3' U   B  46      42.338  31.631  31.275  0.00  0.00    +0.000 C 
ATOM    444  C2' U   B  46      43.739  31.331  30.761  0.00  0.00    +0.000 C 
ATOM    445  C1' U   B  46      44.493  31.131  32.079  0.00  0.00    +0.000 C 
BRANCH 445 446
ATOM    446  N1  U   B  46      44.540  29.706  32.480  0.00  0.00    +0.000 N 
ATOM    447  C2  U   B  46      45.502  28.913  31.878  0.00  0.00    +0.000 A 
ATOM    448  O2  U   B  46      46.293  29.339  31.051  0.00  0.00    +0.000 OA
ATOM    449  N3  U   B  46      45.510  27.594  32.275  0.00  0.00    +0.000 N 
ATOM    450  C4  U   B  46      44.667  27.003  33.195  0.00  0.00    +0.000 A 
ATOM    451  O4  U   B  46      44.797  25.801  33.449  0.00  0.00    +0.000 OA
ATOM    452  C5  U   B  46      43.699  27.887  33.770  0.00  0.00    +0.000 A 
ATOM    453  C6  U   B  46      43.670  29.178  33.403  0.00  0.00    +0.000 A 
ATOM    454  H   U   B  46      46.187  27.012  31.860  0.00  0.00    +0.000 HD
ENDBRANCH 445 446
BRANCH 444 455
ATOM    455  O2' U   B  46      44.298  32.440  30.078  0.00  0.00    +0.000 OA
ATOM    456  H   U   B  46      44.293  33.215  30.661  0.00  0.00    +0.000 HD
ENDBRANCH 444 455
BRANCH 443 457
ATOM    457  O3' U   B  46      41.512  32.285  30.321  0.00  0.00    +0.000 OA
BRANCH 457 458
ATOM    458  P   U   B  47      40.510  31.430  29.418  0.00  0.00    +0.000 P 
ATOM    459  OP1 U   B  47      39.712  32.392  28.613  0.00  0.00    +0.000 OA
BRANCH 458 460
ATOM    460  OP2 U   B  47      39.818  30.432  30.274  0.00  0.00    +0.000 OA
ATOM    461  H   U   B  47      39.207  29.909  29.732  0.00  0.00    +0.000 HD
ENDBRANCH 458 460
BRANCH 458 462
ATOM    462  O5' U   B  47      41.495  30.648  28.436  0.00  0.00    +0.000 OA
BRANCH 462 463
ATOM    463  C5' U   B  47      42.281  31.358  27.484  0.00  0.00    +0.000 C 
BRANCH 463 464
ATOM    464  C4' U   B  47      43.330  30.485  26.832  0.00  0.00    +0.000 C 
ATOM    465  O4' U   B  47      44.182  29.869  27.838  0.00  0.00    +0.000 OA
ATOM    466  C3' U   B  47      42.835  29.298  26.030  0.00  0.00    +0.000 C 
ATOM    467  C2' U   B  47      44.102  28.450  25.929  0.00  0.00    +0.000 C 
ATOM    468  C1' U   B  47      44.718  28.662  27.318  0.00  0.00    +0.000 C 
BRANCH 468 469
ATOM    469  N1  U   B  47      44.429  27.540  28.233  0.00  0.00    +0.000 N 
ATOM    470  C2  U   B  47      45.221  26.407  28.090  0.00  0.00    +0.000 A 
ATOM    471  O2  U   B  47      46.115  26.318  27.266  0.00  0.00    +0.000 OA
ATOM    472  N3  U   B  47      44.930  25.374  28.950  0.00  0.00    +0.000 N 
ATOM    473  C4  U   B  47      43.944  25.357  29.917  0.00  0.00    +0.000 A 
ATOM    474  O4  U   B  47      43.803  24.348  30.613  0.00  0.00    +0.000 OA
ATOM    475  C5  U   B  47      43.167  26.564  30.001  0.00  0.00    +0.000 A 
ATOM    476  C6  U   B  47      43.429  27.589  29.175  0.00  0.00    +0.000 A 
ATOM    477  H   U   B  47      45.482  24.563  28.868  0.00  0.00    +0.000 HD
ENDBRANCH 468 469
BRANCH 467 478
ATOM    478  O2' U   B  47      44.996  28.949  24.950  0.00  0.00    +0.000 OA
ATOM    479  H   U   B  47      45.211  29.874  25.149  0.00  0.00    +0.000 HD
ENDBRANCH 467 478
BRANCH 466 480
ATOM    480  O3' U   B  47      42.315  29.674  24.758  0.00  0.00    +0.000 OA
BRANCH 480 481
ATOM    481  P   A   B  48      41.276  28.713  24.009  0.00  0.00    +0.000 P 
ATOM    482  OP1 A   B  48      40.690  29.484  22.884  0.00  0.00    +0.000 OA
BRANCH 481 483
ATOM    483  OP2 A   B  48      40.381  28.083  25.016  0.00  0.00    +0.000 OA
ATOM    484  H   A   B  48      39.749  27.500  24.567  0.00  0.00    +0.000 HD
ENDBRANCH 481 483
BRANCH 481 485
ATOM    485  O5' A   B  48      42.212  27.574  23.400  0.00  0.00    +0.000 OA
BRANCH 485 486
ATOM    486  C5' A   B  48      43.189  27.890  22.406  0.00  0.00    +0.000 C 
BRANCH 486 487
ATOM    487  C4' A   B  48      44.113  26.717  22.160  0.00  0.00    +0.000 C 
ATOM    488  O4' A   B  48      44.816  26.375  23.382  0.00  0.00    +0.000 OA
ATOM    489  C3' A   B  48      43.444  25.417  21.747  0.00  0.00    +0.000 C 
ATOM    490  C2' A   B  48      44.500  24.383  22.128  0.00  0.00    +0.000 C 
ATOM    491  C1' A   B  48      45.049  24.978  23.426  0.00  0.00    +0.000 C 
BRANCH 491 492
ATOM    492  N9  A   B  48      44.393  24.426  24.623  0.00  0.00    +0.000 N 
ATOM    493  C8  A   B  48      43.389  24.983  25.380  0.00  0.00    +0.000 A 
ATOM    494  N7  A   B  48      43.019  24.238  26.396  0.00  0.00    +0.000 NA
ATOM    495  C5  A   B  48      43.835  23.115  26.300  0.00  0.00    +0.000 A 
ATOM    496  C6  A   B  48      43.941  21.952  27.081  0.00  0.00    +0.000 A 
ATOM    497  N6  A   B  48      43.188  21.712  28.161  0.00  0.00    +0.000 N 
ATOM    498  N1  A   B  48      44.854  21.026  26.713  0.00  0.00    +0.000 NA
ATOM    499  C2  A   B  48      45.608  21.263  25.630  0.00  0.00    +0.000 A 
ATOM    500  N3  A   B  48      45.603  22.320  24.819  0.00  0.00    +0.000 NA
ATOM    501  C4  A   B  48      44.684  23.218  25.213  0.00  0.00    +0.000 A 
ATOM    502  H   A   B  48      42.516  22.371  28.449  0.00  0.00    +0.000 HD
ATOM    503  H   A   B  48      43.306  20.876  28.668  0.00  0.00    +0.000 HD
ENDBRANCH 491 492
BRANCH 490 504
ATOM    504  O2' A   B  48      45.545  24.317  21.169  0.00  0.00    +0.000 OA
ATOM    505  H   A   B  48      45.940  25.196  21.060  0.00  0.00    +0.000 HD
ENDBRANCH 490 504
BRANCH 489 506
ATOM    506  O3' A   B  48      43.112  25.394  20.362  0.00  0.00    +0.000 OA
BRANCH 506 507
ATOM    507  P   U   B  49      41.825  24.576  19.859  0.00  0.00    +0.000 P 
ATOM    508  OP1 U   B  49      41.583  24.958  18.444  0.00  0.00    +0.000 OA
BRANCH 507 509
ATOM    509  OP2 U   B  49      40.736  24.732  20.861  0.00  0.00    +0.000 OA
ATOM    510  H   U   B  49      39.953  24.241  20.567  0.00  0.00    +0.000 HD
ENDBRANCH 507 509
BRANCH 507 511
ATOM    511  O5' U   B  49      42.320  23.060  19.895  0.00  0.00    +0.000 OA
BRANCH 511 512
ATOM    512  C5' U   B  49      43.381  22.613  19.050  0.00  0.00    +0.000 C 
BRANCH 512 513
ATOM    513  C4' U   B  49      43.888  21.253  19.475  0.00  0.00    +0.000 C 
ATOM    514  O4' U   B  49      44.398  21.321  20.836  0.00  0.00    +0.000 OA
ATOM    515  C3' U   B  49      42.853  20.143  19.530  0.00  0.00    +0.000 C 
ATOM    516  C2' U   B  49      43.510  19.146  20.480  0.00  0.00    +0.000 C 
ATOM    517  C1' U   B  49      44.160  20.089  21.499  0.00  0.00    +0.000 C 
BRANCH 517 518
ATOM    518  N1  U   B  49      43.293  20.332  22.672  0.00  0.00    +0.000 N 
ATOM    519  C2  U   B  49      43.309  19.381  23.680  0.00  0.00    +0.000 A 
ATOM    520  O2  U   B  49      43.995  18.374  23.638  0.00  0.00    +0.000 OA
ATOM    521  N3  U   B  49      42.488  19.651  24.754  0.00  0.00    +0.000 N 
ATOM    522  C4  U   B  49      41.666  20.751  24.913  0.00  0.00    +0.000 A 
ATOM    523  O4  U   B  49      40.981  20.855  25.934  0.00  0.00    +0.000 OA
ATOM    524  C5  U   B  49      41.703  21.683  23.827  0.00  0.00    +0.000 A 
ATOM    525  C6  U   B  49      42.495  21.448  22.771  0.00  0.00    +0.000 A 
ATOM    526  H   U   B  49      42.487  18.991  25.485  0.00  0.00    +0.000 HD
ENDBRANCH 517 518
BRANCH 516 527
ATOM    527  O2' U   B  49      44.524  18.393  19.836  0.00  0.00    +0.000 OA
ATOM    528  H   U   B  49      45.180  18.996  19.452  0.00  0.00    +0.000 HD
ENDBRANCH 516 527
BRANCH 515 529
ATOM    529  O3' U   B  49      42.567  19.597  18.250  0.00  0.00    +0.000 OA
BRANCH 529 530
ATOM    530  P   U   B  50      41.084  19.050  17.922  0.00  0.00    +0.000 P 
ATOM    531  OP1 U   B  50      41.047  18.725  16.473  0.00  0.00    +0.000 OA
BRANCH 530 532
ATOM    532  OP2 U   B  50      40.095  20.002  18.490  0.00  0.00    +0.000 OA
ATOM    533  H   U   B  50      40.135  20.840  18.002  0.00  0.00    +0.000 HD
ENDBRANCH 530 532
BRANCH 530 534
ATOM    534  O5' U   B  50      40.992  17.683  18.746  0.00  0.00    +0.000 OA
BRANCH 534 535
ATOM    535  C5' U   B  50      41.790  16.558  18.394  0.00  0.00    +0.000 C 
BRANCH 535 536
ATOM    536  C4' U   B  50      41.820  15.531  19.501  0.00  0.00    +0.000 C 
ATOM    537  O4' U   B  50      42.300  16.143  20.730  0.00  0.00    +0.000 OA
ATOM    538  C3' U   B  50      40.486  14.926  19.899  0.00  0.00    +0.000 C 
ATOM    539  C2' U   B  50      40.782  14.408  21.300  0.00  0.00    +0.000 C 
ATOM    540  C1' U   B  50      41.674  15.528  21.844  0.00  0.00    +0.000 C 
BRANCH 540 541
ATOM    541  N1  U   B  50      40.896  16.543  22.585  0.00  0.00    +0.000 N 
ATOM    542  C2  U   B  50      40.561  16.247  23.899  0.00  0.00    +0.000 A 
ATOM    543  O2  U   B  50      40.878  15.208  24.451  0.00  0.00    +0.000 OA
ATOM    544  N3  U   B  50      39.836  17.222  24.550  0.00  0.00    +0.000 N 
ATOM    545  C4  U   B  50      39.417  18.432  24.031  0.00  0.00    +0.000 A 
ATOM    546  O4  U   B  50      38.768  19.204  24.740  0.00  0.00    +0.000 OA
ATOM    547  C5  U   B  50      39.799  18.658  22.670  0.00  0.00    +0.000 A 
ATOM    548  C6  U   B  50      40.507  17.730  22.010  0.00  0.00    +0.000 A 
ATOM    549  H   U   B  50      39.590  17.036  25.485  0.00  0.00    +0.000 HD
ENDBRANCH 540 541
BRANCH 539 550
ATOM    550  O2' U   B  50      41.523  13.201  21.274  0.00  0.00    +0.000 OA
ATOM    551  H   U   B  50      42.341  13.335  20.771  0.00  0.00    +0.000 HD
ENDBRANCH 539 550
BRANCH 538 552
ATOM    552  O3' U   B  50      40.048  13.909  19.010  0.00  0.00    +0.000 OA
BRANCH 552 553
ATOM    553  P   U   B  51      38.474  13.613  18.825  0.00  0.00    +0.000 P 
ATOM    554  OP1 U   B  51      38.330  12.606  17.744  0.00  0.00    +0.000 OA
BRANCH 553 555
ATOM    555  OP2 U   B  51      37.762  14.915  18.720  0.00  0.00    +0.000 OA
ATOM    556  H   U   B  51      38.005  15.350  17.888  0.00  0.00    +0.000 HD
ENDBRANCH 553 555
BRANCH 553 557
ATOM    557  O5' U   B  51      38.046  12.930  20.207  0.00  0.00    +0.000 OA
BRANCH 557 558
ATOM    558  C5' U   B  51      38.531  11.645  20.573  0.00  0.00    +0.000 C 
BRANCH 558 559
ATOM    559  C4' U   B  51      38.246  11.332  22.026  0.00  0.00    +0.000 C 
ATOM    560  O4' U   B  51      38.795  12.376  22.873  0.00  0.00    +0.000 OA
ATOM    561  C3' U   B  51      36.784  11.273  22.428  0.00  0.00    +0.000 C 
ATOM    562  C2' U   B  51      36.864  11.490  23.933  0.00  0.00    +0.000 C 
ATOM    563  C1' U   B  51      37.984  12.529  24.024  0.00  0.00    +0.000 C 
BRANCH 563 564
ATOM    564  N1  U   B  51      37.461  13.911  24.067  0.00  0.00    +0.000 N 
ATOM    565  C2  U   B  51      36.971  14.366  25.282  0.00  0.00    +0.000 A 
ATOM    566  O2  U   B  51      36.954  13.683  26.292  0.00  0.00    +0.000 OA
ATOM    567  N3  U   B  51      36.496  15.659  25.274  0.00  0.00    +0.000 N 
ATOM    568  C4  U   B  51      36.459  16.522  24.198  0.00  0.00    +0.000 A 
ATOM    569  O4  U   B  51      35.998  17.656  24.348  0.00  0.00    +0.000 OA
ATOM    570  C5  U   B  51      36.980  15.977  22.980  0.00  0.00    +0.000 A 
ATOM    571  C6  U   B  51      37.451  14.721  22.956  0.00  0.00    +0.000 A 
ATOM    572  H   U   B  51      36.146  16.004  26.127  0.00  0.00    +0.000 HD
ENDBRANCH 563 564
BRANCH 562 573
ATOM    573  O2' U   B  51      37.268  10.317  24.617  0.00  0.00    +0.000 OA
ATOM    574  H   U   B  51      38.118  10.013  24.263  0.00  0.00    +0.000 HD
ENDBRANCH 562 573
BRANCH 561 575
ATOM    575  O3' U   B  51      36.163  10.045  22.075  0.00  0.00    +0.000 OA
BRANCH 575 576
ATOM    576  P   U   B  52      34.580   9.969  21.820  0.00  0.00    +0.000 P 
ATOM    577  OP2 U   B  52      34.174  11.183  21.062  0.00  0.00    +0.000 OA
BRANCH 576 578
ATOM    578  OP1 U   B  52      34.274   8.624  21.275  0.00  0.00    +0.000 OA
ATOM    579  H   U   B  52      34.648   8.543  20.384  0.00  0.00    +0.000 HD
ENDBRANCH 576 578
BRANCH 576 580
ATOM    580  O5' U   B  52      33.953  10.074  23.286  0.00  0.00    +0.000 OA
BRANCH 580 581
ATOM    581  C5' U   B  52      34.130   9.037  24.240  0.00  0.00    +0.000 C 
BRANCH 581 582
ATOM    582  C4' U   B  52      33.695   9.466  25.625  0.00  0.00    +0.000 C 
ATOM    583  O4' U   B  52      34.420  10.659  26.025  0.00  0.00    +0.000 OA
ATOM    584  C3' U   B  52      32.237   9.861  25.774  0.00  0.00    +0.000 C 
ATOM    585  C2' U   B  52      32.272  10.715  27.035  0.00  0.00    +0.000 C 
ATOM    586  C1' U   B  52      33.597  11.460  26.853  0.00  0.00    +0.000 C 
BRANCH 586 587
ATOM    587  N1  U   B  52      33.416  12.783  26.216  0.00  0.00    +0.000 N 
ATOM    588  C2  U   B  52      32.979  13.822  27.024  0.00  0.00    +0.000 A 
ATOM    589  O2  U   B  52      32.741  13.687  28.214  0.00  0.00    +0.000 OA
ATOM    590  N3  U   B  52      32.825  15.034  26.388  0.00  0.00    +0.000 N 
ATOM    591  C4  U   B  52      33.057  15.306  25.053  0.00  0.00    +0.000 A 
ATOM    592  O4  U   B  52      32.872  16.446  24.627  0.00  0.00    +0.000 OA
ATOM    593  C5  U   B  52      33.506  14.182  24.286  0.00  0.00    +0.000 A 
ATOM    594  C6  U   B  52      33.664  12.990  24.879  0.00  0.00    +0.000 A 
ATOM    595  H   U   B  52      32.517  15.786  26.943  0.00  0.00    +0.000 HD
ENDBRANCH 586 587
BRANCH 585 596
ATOM    596  O2' U   B  52      32.346   9.924  28.207  0.00  0.00    +0.000 OA
ATOM    597  H   U   B  52      33.121   9.343  28.157  0.00  0.00    +0.000 HD
ENDBRANCH 585 596
BRANCH 584 598
ATOM    598  O3' U   B  52      31.370   8.737  25.884  0.00  0.00    +0.000 OA
BRANCH 598 599
ATOM    599  P   A   B  53      29.847   8.821  25.388  0.00  0.00    +0.000 P 
ATOM    600  OP2 A   B  53      29.816   9.586  24.116  0.00  0.00    +0.000 OA
BRANCH 599 601
ATOM    601  OP1 A   B  53      29.272   7.454  25.440  0.00  0.00    +0.000 OA
ATOM    602  H   A   B  53      29.693   6.900  24.764  0.00  0.00    +0.000 HD
ENDBRANCH 599 601
BRANCH 599 603
ATOM    603  O5' A   B  53      29.135   9.710  26.510  0.00  0.00    +0.000 OA
BRANCH 603 604
ATOM    604  C5' A   B  53      28.975   9.219  27.839  0.00  0.00    +0.000 C 
BRANCH 604 605
ATOM    605  C4' A   B  53      28.492  10.309  28.770  0.00  0.00    +0.000 C 
ATOM    606  O4' A   B  53      29.455  11.393  28.803  0.00  0.00    +0.000 OA
ATOM    607  C3' A   B  53      27.187  10.988  28.380  0.00  0.00    +0.000 C 
ATOM    608  C2' A   B  53      27.290  12.309  29.127  0.00  0.00    +0.000 C 
ATOM    609  C1' A   B  53      28.779  12.624  28.974  0.00  0.00    +0.000 C 
BRANCH 609 610
ATOM    610  N9  A   B  53      29.050  13.477  27.804  0.00  0.00    +0.000 N 
ATOM    611  C8  A   B  53      29.554  13.108  26.580  0.00  0.00    +0.000 A 
ATOM    612  N7  A   B  53      29.683  14.109  25.738  0.00  0.00    +0.000 NA
ATOM    613  C5  A   B  53      29.232  15.211  26.457  0.00  0.00    +0.000 A 
ATOM    614  C6  A   B  53      29.112  16.572  26.134  0.00  0.00    +0.000 A 
ATOM    615  N1  A   B  53      28.625  17.406  27.078  0.00  0.00    +0.000 NA
ATOM    616  C2  A   B  53      28.283  16.900  28.270  0.00  0.00    +0.000 A 
ATOM    617  N3  A   B  53      28.351  15.637  28.697  0.00  0.00    +0.000 NA
ATOM    618  C4  A   B  53      28.839  14.834  27.730  0.00  0.00    +0.000 A 
BRANCH 614 619
ATOM    619  N6  A   B  53      29.450  17.080  24.942  0.00  0.00    +0.000 N 
ATOM    620  H   A   B  53      29.807  16.490  24.239  0.00  0.00    +0.000 HD
ATOM    621  H   A   B  53      29.341  18.043  24.769  0.00  0.00    +0.000 HD
ENDBRANCH 614 619
ENDBRANCH 609 610
BRANCH 608 622
ATOM    622  O2' A   B  53      26.987  12.164  30.505  0.00  0.00    +0.000 OA
ATOM    623  H   A   B  53      27.572  11.496  30.896  0.00  0.00    +0.000 HD
ENDBRANCH 608 622
BRANCH 607 624
ATOM    624  O3' A   B  53      26.039  10.225  28.738  0.00  0.00    +0.000 OA
BRANCH 624 625
ATOM    625  P   A   B  54      24.691  10.316  27.875  0.00  0.00    +0.000 P 
ATOM    626  OP2 A   B  54      25.056  10.372  26.435  0.00  0.00    +0.000 OA
BRANCH 625 627
ATOM    627  OP1 A   B  54      23.771   9.258  28.358  0.00  0.00    +0.000 OA
ATOM    628  H   A   B  54      22.945   9.291  27.851  0.00  0.00    +0.000 HD
ENDBRANCH 625 627
BRANCH 625 629
ATOM    629  O5' A   B  54      24.082  11.734  28.283  0.00  0.00    +0.000 OA
BRANCH 629 630
ATOM    630  C5' A   B  54      23.628  11.977  29.614  0.00  0.00    +0.000 C 
BRANCH 630 631
ATOM    631  C4' A   B  54      23.390  13.449  29.851  0.00  0.00    +0.000 C 
ATOM    632  O4' A   B  54      24.613  14.191  29.603  0.00  0.00    +0.000 OA
ATOM    633  C3' A   B  54      22.368  14.116  28.942  0.00  0.00    +0.000 C 
ATOM    634  C2' A   B  54      22.769  15.580  29.046  0.00  0.00    +0.000 C 
ATOM    635  C1' A   B  54      24.295  15.465  29.073  0.00  0.00    +0.000 C 
BRANCH 635 636
ATOM    636  N9  A   B  54      24.882  15.578  27.726  0.00  0.00    +0.000 N 
ATOM    637  C8  A   B  54      25.356  14.573  26.918  0.00  0.00    +0.000 A 
ATOM    638  N7  A   B  54      25.819  15.001  25.765  0.00  0.00    +0.000 NA
ATOM    639  C5  A   B  54      25.634  16.379  25.819  0.00  0.00    +0.000 A 
ATOM    640  C6  A   B  54      25.917  17.412  24.910  0.00  0.00    +0.000 A 
ATOM    641  N1  A   B  54      25.607  18.675  25.273  0.00  0.00    +0.000 NA
ATOM    642  C2  A   B  54      25.048  18.882  26.471  0.00  0.00    +0.000 A 
ATOM    643  N3  A   B  54      24.736  17.994  27.417  0.00  0.00    +0.000 NA
ATOM    644  C4  A   B  54      25.057  16.745  27.020  0.00  0.00    +0.000 A 
BRANCH 640 645
ATOM    645  N6  A   B  54      26.471  17.207  23.707  0.00  0.00    +0.000 N 
ATOM    646  H   A   B  54      26.647  17.970  23.110  0.00  0.00    +0.000 HD
ATOM    647  H   A   B  54      26.702  16.294  23.420  0.00  0.00    +0.000 HD
ENDBRANCH 640 645
ENDBRANCH 635 636
BRANCH 634 648
ATOM    648  O2' A   B  54      22.327  16.166  30.257  0.00  0.00    +0.000 OA
ATOM    649  H   A   B  54      22.670  15.656  31.007  0.00  0.00    +0.000 HD
ENDBRANCH 634 648
BRANCH 633 650
ATOM    650  O3' A   B  54      21.026  13.871  29.347  0.00  0.00    +0.000 OA
BRANCH 650 651
ATOM    651  P   A   B  55      19.842  13.819  28.273  0.00  0.00    +0.000 P 
ATOM    652  OP2 A   B  55      20.323  13.079  27.074  0.00  0.00    +0.000 OA
BRANCH 651 653
ATOM    653  OP1 A   B  55      18.612  13.371  28.970  0.00  0.00    +0.000 OA
ATOM    654  H   A   B  55      17.878  13.332  28.337  0.00  0.00    +0.000 HD
ENDBRANCH 651 653
BRANCH 651 655
ATOM    655  O5' A   B  55      19.654  15.353  27.859  0.00  0.00    +0.000 OA
BRANCH 655 656
ATOM    656  C5' A   B  55      19.194  16.309  28.808  0.00  0.00    +0.000 C 
BRANCH 656 657
ATOM    657  C4' A   B  55      19.354  17.718  28.288  0.00  0.00    +0.000 C 
ATOM    658  O4' A   B  55      20.745  17.965  27.958  0.00  0.00    +0.000 OA
ATOM    659  C3' A   B  55      18.610  18.044  27.001  0.00  0.00    +0.000 C 
ATOM    660  C2' A   B  55      19.387  19.248  26.491  0.00  0.00    +0.000 C 
ATOM    661  C1' A   B  55      20.819  18.856  26.860  0.00  0.00    +0.000 C 
BRANCH 661 662
ATOM    662  N9  A   B  55      21.521  18.188  25.750  0.00  0.00    +0.000 N 
ATOM    663  C8  A   B  55      21.789  16.848  25.592  0.00  0.00    +0.000 A 
ATOM    664  N7  A   B  55      22.439  16.568  24.483  0.00  0.00    +0.000 NA
ATOM    665  C5  A   B  55      22.608  17.806  23.873  0.00  0.00    +0.000 A 
ATOM    666  C6  A   B  55      23.220  18.194  22.671  0.00  0.00    +0.000 A 
ATOM    667  N1  A   B  55      23.214  19.508  22.357  0.00  0.00    +0.000 NA
ATOM    668  C2  A   B  55      22.630  20.372  23.199  0.00  0.00    +0.000 A 
ATOM    669  N3  A   B  55      22.023  20.129  24.363  0.00  0.00    +0.000 NA
ATOM    670  C4  A   B  55      22.047  18.810  24.643  0.00  0.00    +0.000 A 
BRANCH 666 671
ATOM    671  N6  A   B  55      23.802  17.331  21.826  0.00  0.00    +0.000 N 
ATOM    672  H   A   B  55      24.217  17.659  20.996  0.00  0.00    +0.000 HD
ATOM    673  H   A   B  55      23.815  16.369  22.036  0.00  0.00    +0.000 HD
ENDBRANCH 666 671
ENDBRANCH 661 662
BRANCH 660 674
ATOM    674  O2' A   B  55      19.039  20.433  27.179  0.00  0.00    +0.000 OA
ATOM    675  H   A   B  55      19.178  20.307  28.131  0.00  0.00    +0.000 HD
ENDBRANCH 660 674
BRANCH 659 676
ATOM    676  O3' A   B  55      17.231  18.316  27.220  0.00  0.00    +0.000 OA
BRANCH 676 677
ATOM    677  P   A   B  56      16.146  17.997  26.101  0.00  0.00    +0.000 P 
ATOM    678  OP2 A   B  56      16.495  16.700  25.457  0.00  0.00    +0.000 OA
BRANCH 677 679
ATOM    679  OP1 A   B  56      14.803  18.185  26.699  0.00  0.00    +0.000 OA
ATOM    680  H   A   B  56      14.123  17.996  26.033  0.00  0.00    +0.000 HD
ENDBRANCH 677 679
BRANCH 677 681
ATOM    681  O5' A   B  56      16.385  19.155  25.026  0.00  0.00    +0.000 OA
BRANCH 681 682
ATOM    682  C5' A   B  56      16.143  20.516  25.360  0.00  0.00    +0.000 C 
BRANCH 682 683
ATOM    683  C4' A   B  56      16.655  21.439  24.277  0.00  0.00    +0.000 C 
ATOM    684  O4' A   B  56      18.078  21.235  24.096  0.00  0.00    +0.000 OA
ATOM    685  C3' A   B  56      16.073  21.220  22.889  0.00  0.00    +0.000 C 
ATOM    686  C2' A   B  56      17.141  21.831  21.994  0.00  0.00    +0.000 C 
ATOM    687  C1' A   B  56      18.419  21.435  22.736  0.00  0.00    +0.000 C 
BRANCH 687 688
ATOM    688  N9  A   B  56      19.020  20.196  22.214  0.00  0.00    +0.000 N 
ATOM    689  C8  A   B  56      18.944  18.926  22.737  0.00  0.00    +0.000 A 
ATOM    690  N7  A   B  56      19.601  18.027  22.037  0.00  0.00    +0.000 NA
ATOM    691  C5  A   B  56      20.144  18.753  20.985  0.00  0.00    +0.000 A 
ATOM    692  C6  A   B  56      20.949  18.384  19.895  0.00  0.00    +0.000 A 
ATOM    693  N1  A   B  56      21.317  19.353  19.028  0.00  0.00    +0.000 NA
ATOM    694  C2  A   B  56      20.903  20.608  19.244  0.00  0.00    +0.000 A 
ATOM    695  N3  A   B  56      20.146  21.080  20.237  0.00  0.00    +0.000 NA
ATOM    696  C4  A   B  56      19.795  20.088  21.081  0.00  0.00    +0.000 A 
BRANCH 692 697
ATOM    697  N6  A   B  56      21.364  17.129  19.673  0.00  0.00    +0.000 N 
ATOM    698  H   A   B  56      21.928  16.928  18.891  0.00  0.00    +0.000 HD
ATOM    699  H   A   B  56      21.105  16.408  20.292  0.00  0.00    +0.000 HD
ENDBRANCH 692 697
ENDBRANCH 687 688
BRANCH 686 700
ATOM    700  O2' A   B  56      17.048  23.241  21.946  0.00  0.00    +0.000 OA
ATOM    701  H   A   B  56      17.102  23.599  22.846  0.00  0.00    +0.000 HD
ENDBRANCH 686 700
BRANCH 685 702
ATOM    702  O3' A   B  56      14.797  21.834  22.737  0.00  0.00    +0.000 OA
BRANCH 702 703
ATOM    703  P   A   B  57      13.685  21.201  21.801  0.00  0.00    +0.000 P 
ATOM    704  OP2 A   B  57      13.699  19.723  21.971  0.00  0.00    +0.000 OA
BRANCH 703 705
ATOM    705  OP1 A   B  57      12.422  21.947  22.004  0.00  0.00    +0.000 OA
ATOM    706  H   A   B  57      11.730  21.571  21.437  0.00  0.00    +0.000 HD
ENDBRANCH 703 705
BRANCH 703 707
ATOM    707  O5' A   B  57      14.232  21.530  20.334  0.00  0.00    +0.000 OA
BRANCH 707 708
ATOM    708  C5' A   B  57      14.331  22.870  19.880  0.00  0.00    +0.000 C 
BRANCH 708 709
ATOM    709  C4' A   B  57      14.975  22.925  18.511  0.00  0.00    +0.000 C 
ATOM    710  O4' A   B  57      16.327  22.407  18.604  0.00  0.00    +0.000 OA
ATOM    711  C3' A   B  57      14.317  22.077  17.440  0.00  0.00    +0.000 C 
ATOM    712  C2' A   B  57      15.462  21.820  16.460  0.00  0.00    +0.000 C 
ATOM    713  C1' A   B  57      16.676  21.759  17.397  0.00  0.00    +0.000 C 
BRANCH 713 714
ATOM    714  N9  A   B  57      17.105  20.385  17.705  0.00  0.00    +0.000 N 
ATOM    715  C8  A   B  57      16.666  19.556  18.706  0.00  0.00    +0.000 A 
ATOM    716  N7  A   B  57      17.261  18.384  18.720  0.00  0.00    +0.000 NA
ATOM    717  C5  A   B  57      18.154  18.450  17.653  0.00  0.00    +0.000 A 
ATOM    718  C6  A   B  57      19.084  17.531  17.134  0.00  0.00    +0.000 A 
ATOM    719  N6  A   B  57      19.274  16.303  17.641  0.00  0.00    +0.000 N 
ATOM    720  N1  A   B  57      19.818  17.911  16.066  0.00  0.00    +0.000 NA
ATOM    721  C2  A   B  57      19.631  19.134  15.554  0.00  0.00    +0.000 A 
ATOM    722  N3  A   B  57      18.788  20.088  15.956  0.00  0.00    +0.000 NA
ATOM    723  C4  A   B  57      18.070  19.676  17.021  0.00  0.00    +0.000 A 
ATOM    724  H   A   B  57      19.940  15.701  17.236  0.00  0.00    +0.000 HD
ATOM    725  H   A   B  57      18.748  16.004  18.417  0.00  0.00    +0.000 HD
ENDBRANCH 713 714
BRANCH 712 726
ATOM    726  O2' A   B  57      15.631  22.893  15.548  0.00  0.00    +0.000 OA
ATOM    727  H   A   B  57      15.780  23.715  16.040  0.00  0.00    +0.000 HD
ENDBRANCH 712 726
BRANCH 711 728
ATOM    728  O3' A   B  57      13.222  22.745  16.822  0.00  0.00    +0.000 OA
BRANCH 728 729
ATOM    729  P   C   B  58      11.771  22.697  17.482  0.00  0.00    +0.000 P 
ATOM    730  OP1 C   B  58      11.529  24.026  18.118  0.00  0.00    +0.000 OA
BRANCH 729 731
ATOM    731  OP2 C   B  58      11.662  21.464  18.298  0.00  0.00    +0.000 OA
ATOM    732  H   C   B  58      11.847  20.691  17.742  0.00  0.00    +0.000 HD
ENDBRANCH 729 731
BRANCH 729 733
ATOM    733  O5' C   B  58      10.768  22.565  16.235  0.00  0.00    +0.000 OA
BRANCH 733 734
ATOM    734  C5' C   B  58      10.879  21.502  15.310  0.00  0.00    +0.000 C 
BRANCH 734 735
ATOM    735  C4' C   B  58      10.116  21.804  14.045  0.00  0.00    +0.000 C 
ATOM    736  O4' C   B  58       8.717  21.949  14.333  0.00  0.00    +0.000 OA
ATOM    737  C3' C   B  58      10.487  23.099  13.350  0.00  0.00    +0.000 C 
ATOM    738  C2' C   B  58       9.238  23.433  12.544  0.00  0.00    +0.000 C 
ATOM    739  C1' C   B  58       8.121  22.872  13.436  0.00  0.00    +0.000 C 
BRANCH 739 740
ATOM    740  N1  C   B  58       7.388  23.900  14.208  0.00  0.00    +0.000 N 
ATOM    741  C2  C   B  58       6.581  24.827  13.531  0.00  0.00    +0.000 A 
ATOM    742  O2  C   B  58       6.506  24.781  12.287  0.00  0.00    +0.000 OA
ATOM    743  N3  C   B  58       5.898  25.755  14.241  0.00  0.00    +0.000 NA
ATOM    744  C4  C   B  58       5.995  25.776  15.577  0.00  0.00    +0.000 A 
ATOM    745  N4  C   B  58       5.305  26.710  16.234  0.00  0.00    +0.000 N 
ATOM    746  C5  C   B  58       6.799  24.845  16.293  0.00  0.00    +0.000 A 
ATOM    747  C6  C   B  58       7.472  23.927  15.572  0.00  0.00    +0.000 A 
ATOM    748  H   C   B  58       4.750  27.353  15.736  0.00  0.00    +0.000 HD
ATOM    749  H   C   B  58       5.351  26.756  17.216  0.00  0.00    +0.000 HD
ENDBRANCH 739 740
BRANCH 738 750
ATOM    750  O2' C   B  58       9.219  22.755  11.303  0.00  0.00    +0.000 OA
ATOM    751  H   C   B  58       9.287  21.799  11.456  0.00  0.00    +0.000 HD
ENDBRANCH 738 750
BRANCH 737 752
ATOM    752  O3' C   B  58      11.625  22.930  12.515  0.00  0.00    +0.000 OA
BRANCH 752 753
ATOM    753  P   A   B  59      12.849  23.900  12.581  0.00  0.00    +0.000 P 
ATOM    754  OP2 A   B  59      12.746  24.764  11.395  0.00  0.00    +0.000 OA
BRANCH 753 755
ATOM    755  OP1 A   B  59      12.997  24.519  13.937  0.00  0.00    +0.000 OA
ATOM    756  H   A   B  59      13.764  25.113  13.939  0.00  0.00    +0.000 HD
ENDBRANCH 753 755
BRANCH 753 757
ATOM    757  O5' A   B  59      14.035  22.867  12.342  0.00  0.00    +0.000 OA
BRANCH 757 758
ATOM    758  C5' A   B  59      13.757  21.499  12.053  0.00  0.00    +0.000 C 
BRANCH 758 759
ATOM    759  C4' A   B  59      14.830  20.915  11.171  0.00  0.00    +0.000 C 
ATOM    760  O4' A   B  59      16.070  20.805  11.915  0.00  0.00    +0.000 OA
ATOM    761  C3' A   B  59      14.560  19.502  10.673  0.00  0.00    +0.000 C 
ATOM    762  C2' A   B  59      15.970  18.977  10.407  0.00  0.00    +0.000 C 
ATOM    763  C1' A   B  59      16.744  19.617  11.555  0.00  0.00    +0.000 C 
BRANCH 763 764
ATOM    764  N9  A   B  59      16.820  18.742  12.737  0.00  0.00    +0.000 N 
ATOM    765  C8  A   B  59      16.227  18.929  13.958  0.00  0.00    +0.000 A 
ATOM    766  N7  A   B  59      16.490  17.971  14.822  0.00  0.00    +0.000 NA
ATOM    767  C5  A   B  59      17.312  17.100  14.118  0.00  0.00    +0.000 A 
ATOM    768  C6  A   B  59      17.933  15.893  14.469  0.00  0.00    +0.000 A 
ATOM    769  N6  A   B  59      17.812  15.325  15.681  0.00  0.00    +0.000 N 
ATOM    770  N1  A   B  59      18.686  15.274  13.532  0.00  0.00    +0.000 NA
ATOM    771  C2  A   B  59      18.803  15.840  12.324  0.00  0.00    +0.000 A 
ATOM    772  N3  A   B  59      18.268  16.976  11.873  0.00  0.00    +0.000 NA
ATOM    773  C4  A   B  59      17.528  17.564  12.833  0.00  0.00    +0.000 A 
ATOM    774  H   A   B  59      18.270  14.475  15.874  0.00  0.00    +0.000 HD
ATOM    775  H   A   B  59      17.265  15.759  16.375  0.00  0.00    +0.000 HD
ENDBRANCH 763 764
BRANCH 762 776
ATOM    776  O2' A   B  59      16.482  19.448   9.175  0.00  0.00    +0.000 OA
ATOM    777  H   A   B  59      16.460  20.418   9.165  0.00  0.00    +0.000 HD
ENDBRANCH 762 776
BRANCH 761 778
ATOM    778  O3' A   B  59      13.729  19.501   9.517  0.00  0.00    +0.000 OA
BRANCH 778 779
ATOM    779  P   G   B  60      12.527  18.472   9.386  0.00  0.00    +0.000 P 
ATOM    780  OP1 G   B  60      11.623  18.972   8.322  0.00  0.00    +0.000 OA
BRANCH 779 781
ATOM    781  OP2 G   B  60      11.985  18.189  10.734  0.00  0.00    +0.000 OA
ATOM    782  H   G   B  60      11.250  17.561  10.661  0.00  0.00    +0.000 HD
ENDBRANCH 779 781
BRANCH 779 783
ATOM    783  O5' G   B  60      13.259  17.158   8.851  0.00  0.00    +0.000 OA
BRANCH 783 784
ATOM    784  C5' G   B  60      13.934  17.160   7.600  0.00  0.00    +0.000 C 
BRANCH 784 785
ATOM    785  C4' G   B  60      14.834  15.952   7.462  0.00  0.00    +0.000 C 
ATOM    786  O4' G   B  60      15.805  15.946   8.540  0.00  0.00    +0.000 OA
ATOM    787  C3' G   B  60      14.151  14.606   7.573  0.00  0.00    +0.000 C 
ATOM    788  C2' G   B  60      15.292  13.686   8.006  0.00  0.00    +0.000 C 
ATOM    789  C1' G   B  60      16.132  14.617   8.888  0.00  0.00    +0.000 C 
BRANCH 789 790
ATOM    790  N9  G   B  60      15.900  14.424  10.330  0.00  0.00    +0.000 N 
ATOM    791  C8  G   B  60      15.096  15.169  11.156  0.00  0.00    +0.000 A 
ATOM    792  N7  G   B  60      15.112  14.751  12.397  0.00  0.00    +0.000 NA
ATOM    793  C5  G   B  60      15.984  13.667  12.386  0.00  0.00    +0.000 A 
ATOM    794  C6  G   B  60      16.404  12.811  13.436  0.00  0.00    +0.000 A 
ATOM    795  O6  G   B  60      16.078  12.838  14.635  0.00  0.00    +0.000 OA
ATOM    796  N1  G   B  60      17.293  11.842  12.984  0.00  0.00    +0.000 NA
ATOM    797  C2  G   B  60      17.727  11.712  11.688  0.00  0.00    +0.000 A 
ATOM    798  N2  G   B  60      18.593  10.709  11.441  0.00  0.00    +0.000 N 
ATOM    799  N3  G   B  60      17.345  12.503  10.700  0.00  0.00    +0.000 N 
ATOM    800  C4  G   B  60      16.477  13.456  11.120  0.00  0.00    +0.000 A 
ATOM    801  H   G   B  60      18.937  10.569  10.529  0.00  0.00    +0.000 HD
ATOM    802  H   G   B  60      18.881  10.116  12.172  0.00  0.00    +0.000 HD
ATOM    803  H   G   B  60      17.654  12.411   9.770  0.00  0.00    +0.000 HD
ENDBRANCH 789 790
BRANCH 788 804
ATOM    804  O2' G   B  60      16.069  13.255   6.900  0.00  0.00    +0.000 OA
ATOM    805  H   G   B  60      16.410  14.028   6.423  0.00  0.00    +0.000 HD
ENDBRANCH 788 804
BRANCH 787 806
ATOM    806  O3' G   B  60      13.573  14.216   6.322  0.00  0.00    +0.000 OA
BRANCH 806 807
ATOM    807  P   A   B  61      12.551  13.016   6.264  0.00  0.00    +0.000 P 
ATOM    808  OP2 A   B  61      11.944  12.971   4.908  0.00  0.00    +0.000 OA
BRANCH 807 809
ATOM    809  OP1 A   B  61      13.229  11.813   6.802  0.00  0.00    +0.000 OA
ATOM    810  H   A   B  61      13.919  11.527   6.183  0.00  0.00    +0.000 HD
ENDBRANCH 807 809
BRANCH 807 811
ATOM    811  O5' A   B  61      11.425  13.476   7.283  0.00  0.00    +0.000 OA
BRANCH 811 812
ATOM    812  C5' A   B  61      10.743  12.551   8.111  0.00  0.00    +0.000 C 
BRANCH 812 813
ATOM    813  C4' A   B  61       9.364  13.064   8.443  0.00  0.00    +0.000 C 
ATOM    814  O4' A   B  61       9.435  14.475   8.763  0.00  0.00    +0.000 OA
ATOM    815  C3' A   B  61       8.355  12.990   7.305  0.00  0.00    +0.000 C 
ATOM    816  C2' A   B  61       7.364  14.084   7.682  0.00  0.00    +0.000 C 
ATOM    817  C1' A   B  61       8.305  15.149   8.240  0.00  0.00    +0.000 C 
BRANCH 817 818
ATOM    818  N9  A   B  61       8.758  16.087   7.202  0.00  0.00    +0.000 N 
ATOM    819  C8  A   B  61       9.972  16.109   6.563  0.00  0.00    +0.000 A 
ATOM    820  N7  A   B  61      10.089  17.072   5.676  0.00  0.00    +0.000 NA
ATOM    821  C5  A   B  61       8.868  17.731   5.735  0.00  0.00    +0.000 A 
ATOM    822  C6  A   B  61       8.356  18.846   5.041  0.00  0.00    +0.000 A 
ATOM    823  N1  A   B  61       7.100  19.249   5.341  0.00  0.00    +0.000 NA
ATOM    824  C2  A   B  61       6.415  18.572   6.274  0.00  0.00    +0.000 A 
ATOM    825  N3  A   B  61       6.786  17.510   6.992  0.00  0.00    +0.000 NA
ATOM    826  C4  A   B  61       8.041  17.136   6.672  0.00  0.00    +0.000 A 
BRANCH 822 827
ATOM    827  N6  A   B  61       9.046  19.516   4.110  0.00  0.00    +0.000 N 
ATOM    828  H   A   B  61       8.638  20.289   3.656  0.00  0.00    +0.000 HD
ATOM    829  H   A   B  61       9.961  19.236   3.879  0.00  0.00    +0.000 HD
ENDBRANCH 822 827
ENDBRANCH 817 818
BRANCH 816 830
ATOM    830  O2' A   B  61       6.474  13.663   8.701  0.00  0.00    +0.000 OA
ATOM    831  H   A   B  61       6.982  13.368   9.473  0.00  0.00    +0.000 HD
ENDBRANCH 816 830
BRANCH 815 832
ATOM    832  O3' A   B  61       7.759  11.704   7.184  0.00  0.00    +0.000 OA
BRANCH 832 833
ATOM    833  P   C   B  62       7.257  11.153   5.775  0.00  0.00    +0.000 P 
ATOM    834  OP2 C   B  62       8.204  11.610   4.729  0.00  0.00    +0.000 OA
BRANCH 833 835
ATOM    835  OP1 C   B  62       6.956   9.706   5.914  0.00  0.00    +0.000 OA
ATOM    836  H   C   B  62       6.649   9.356   5.063  0.00  0.00    +0.000 HD
ENDBRANCH 833 835
BRANCH 833 837
ATOM    837  O5' C   B  62       5.877  11.925   5.566  0.00  0.00    +0.000 OA
BRANCH 837 838
ATOM    838  C5' C   B  62       4.795  11.771   6.480  0.00  0.00    +0.000 C 
BRANCH 838 839
ATOM    839  C4' C   B  62       3.765  12.857   6.297  0.00  0.00    +0.000 C 
ATOM    840  O4' C   B  62       4.376  14.158   6.509  0.00  0.00    +0.000 OA
ATOM    841  C3' C   B  62       3.153  12.959   4.914  0.00  0.00    +0.000 C 
ATOM    842  C2' C   B  62       2.658  14.403   4.887  0.00  0.00    +0.000 C 
ATOM    843  C1' C   B  62       3.770  15.117   5.660  0.00  0.00    +0.000 C 
BRANCH 843 844
ATOM    844  N1  C   B  62       4.808  15.688   4.767  0.00  0.00    +0.000 N 
ATOM    845  C2  C   B  62       4.545  16.904   4.117  0.00  0.00    +0.000 A 
ATOM    846  O2  C   B  62       3.456  17.464   4.305  0.00  0.00    +0.000 OA
ATOM    847  N3  C   B  62       5.489  17.438   3.301  0.00  0.00    +0.000 NA
ATOM    848  C4  C   B  62       6.655  16.809   3.119  0.00  0.00    +0.000 A 
ATOM    849  N4  C   B  62       7.553  17.377   2.302  0.00  0.00    +0.000 N 
ATOM    850  C5  C   B  62       6.947  15.577   3.766  0.00  0.00    +0.000 A 
ATOM    851  C6  C   B  62       6.010  15.059   4.574  0.00  0.00    +0.000 A 
ATOM    852  H   C   B  62       7.344  18.230   1.858  0.00  0.00    +0.000 HD
ATOM    853  H   C   B  62       8.422  16.941   2.146  0.00  0.00    +0.000 HD
ENDBRANCH 843 844
BRANCH 842 854
ATOM    854  O2' C   B  62       1.436  14.557   5.587  0.00  0.00    +0.000 OA
ATOM    855  H   C   B  62       1.544  14.243   6.498  0.00  0.00    +0.000 HD
ENDBRANCH 842 854
BRANCH 841 856
ATOM    856  O3' C   B  62       2.114  12.009   4.704  0.00  0.00    +0.000 OA
BRANCH 856 857
ATOM    857  P   U   B  63       1.997  11.189   3.340  0.00  0.00    +0.000 P 
ATOM    858  OP2 U   B  63       3.338  10.650   2.995  0.00  0.00    +0.000 OA
BRANCH 857 859
ATOM    859  OP1 U   B  63       0.836  10.269   3.434  0.00  0.00    +0.000 OA
ATOM    860  H   U   B  63       0.755   9.765   2.609  0.00  0.00    +0.000 HD
ENDBRANCH 857 859
BRANCH 857 861
ATOM    861  O5' U   B  63       1.638  12.337   2.292  0.00  0.00    +0.000 OA
BRANCH 861 862
ATOM    862  C5' U   B  63       0.420  13.061   2.378  0.00  0.00    +0.000 C 
BRANCH 862 863
ATOM    863  C4' U   B  63       0.443  14.277   1.489  0.00  0.00    +0.000 C 
ATOM    864  O4' U   B  63       1.475  15.195   1.936  0.00  0.00    +0.000 OA
ATOM    865  C3' U   B  63       0.777  14.021   0.034  0.00  0.00    +0.000 C 
ATOM    866  C2' U   B  63       1.284  15.388  -0.420  0.00  0.00    +0.000 C 
ATOM    867  C1' U   B  63       2.055  15.846   0.819  0.00  0.00    +0.000 C 
BRANCH 867 868
ATOM    868  N1  U   B  63       3.492  15.485   0.746  0.00  0.00    +0.000 N 
ATOM    869  C2  U   B  63       4.333  16.310   0.011  0.00  0.00    +0.000 A 
ATOM    870  O2  U   B  63       3.943  17.309  -0.568  0.00  0.00    +0.000 OA
ATOM    871  N3  U   B  63       5.653  15.925  -0.020  0.00  0.00    +0.000 N 
ATOM    872  C4  U   B  63       6.208  14.820   0.592  0.00  0.00    +0.000 A 
ATOM    873  O4  U   B  63       7.417  14.601   0.472  0.00  0.00    +0.000 OA
ATOM    874  C5  U   B  63       5.280  14.019   1.330  0.00  0.00    +0.000 A 
ATOM    875  C6  U   B  63       3.986  14.371   1.382  0.00  0.00    +0.000 A 
ATOM    876  H   U   B  63       6.267  16.499  -0.533  0.00  0.00    +0.000 HD
ENDBRANCH 867 868
BRANCH 866 877
ATOM    877  O2' U   B  63       0.223  16.291  -0.664  0.00  0.00    +0.000 OA
ATOM    878  H   U   B  63      -0.325  16.369   0.133  0.00  0.00    +0.000 HD
ENDBRANCH 866 877
BRANCH 865 879
ATOM    879  O3' U   B  63      -0.334  13.550  -0.719  0.00  0.00    +0.000 OA
BRANCH 879 880
ATOM    880  P   A   B  64      -0.164  12.433  -1.843  0.00  0.00    +0.000 P 
ATOM    881  OP1 A   B  64      -1.509  12.060  -2.351  0.00  0.00    +0.000 OA
BRANCH 880 882
ATOM    882  OP2 A   B  64       0.751  11.377  -1.338  0.00  0.00    +0.000 OA
ATOM    883  H   A   B  64       0.860  10.692  -2.016  0.00  0.00    +0.000 HD
ENDBRANCH 880 882
BRANCH 880 884
ATOM    884  O5' A   B  64       0.593  13.232  -2.995  0.00  0.00    +0.000 OA
BRANCH 884 885
ATOM    885  C5' A   B  64      -0.029  14.324  -3.657  0.00  0.00    +0.000 C 
BRANCH 885 886
ATOM    886  C4' A   B  64       0.970  15.114  -4.465  0.00  0.00    +0.000 C 
ATOM    887  O4' A   B  64       1.979  15.670  -3.587  0.00  0.00    +0.000 OA
ATOM    888  C3' A   B  64       1.765  14.322  -5.489  0.00  0.00    +0.000 C 
ATOM    889  C2' A   B  64       3.003  15.188  -5.667  0.00  0.00    +0.000 C 
ATOM    890  C1' A   B  64       3.237  15.673  -4.240  0.00  0.00    +0.000 C 
BRANCH 890 891
ATOM    891  N9  A   B  64       4.153  14.793  -3.497  0.00  0.00    +0.000 N 
ATOM    892  C8  A   B  64       3.832  13.843  -2.560  0.00  0.00    +0.000 A 
ATOM    893  N7  A   B  64       4.868  13.214  -2.065  0.00  0.00    +0.000 NA
ATOM    894  C5  A   B  64       5.951  13.783  -2.723  0.00  0.00    +0.000 A 
ATOM    895  C6  A   B  64       7.336  13.551  -2.644  0.00  0.00    +0.000 A 
ATOM    896  N6  A   B  64       7.888  12.635  -1.835  0.00  0.00    +0.000 N 
ATOM    897  N1  A   B  64       8.139  14.293  -3.436  0.00  0.00    +0.000 NA
ATOM    898  C2  A   B  64       7.586  15.205  -4.246  0.00  0.00    +0.000 A 
ATOM    899  N3  A   B  64       6.300  15.514  -4.405  0.00  0.00    +0.000 NA
ATOM    900  C4  A   B  64       5.525  14.756  -3.605  0.00  0.00    +0.000 A 
ATOM    901  H   A   B  64       8.865  12.516  -1.821  0.00  0.00    +0.000 HD
ATOM    902  H   A   B  64       7.316  12.082  -1.255  0.00  0.00    +0.000 HD
ENDBRANCH 890 891
BRANCH 889 903
ATOM    903  O2' A   B  64       2.757  16.305  -6.505  0.00  0.00    +0.000 OA
ATOM    904  H   A   B  64       2.021  16.824  -6.144  0.00  0.00    +0.000 HD
ENDBRANCH 889 903
BRANCH 888 905
ATOM    905  O3' A   B  64       1.050  14.104  -6.696  0.00  0.00    +0.000 OA
BRANCH 905 906
ATOM    906  P   C   B  65       1.152  12.704  -7.460  0.00  0.00    +0.000 P 
ATOM    907  OP1 C   B  65       0.173  12.720  -8.574  0.00  0.00    +0.000 OA
BRANCH 906 908
ATOM    908  OP2 C   B  65       1.123  11.594  -6.472  0.00  0.00    +0.000 OA
ATOM    909  H   C   B  65       1.185  10.745  -6.937  0.00  0.00    +0.000 HD
ENDBRANCH 906 908
BRANCH 906 910
ATOM    910  O5' C   B  65       2.621  12.775  -8.081  0.00  0.00    +0.000 OA
BRANCH 910 911
ATOM    911  C5' C   B  65       2.988  13.799  -8.989  0.00  0.00    +0.000 C 
BRANCH 911 912
ATOM    912  C4' C   B  65       4.486  13.878  -9.142  0.00  0.00    +0.000 C 
ATOM    913  O4' C   B  65       5.093  14.156  -7.855  0.00  0.00    +0.000 OA
ATOM    914  C3' C   B  65       5.162  12.603  -9.611  0.00  0.00    +0.000 C 
ATOM    915  C2' C   B  65       6.586  12.787  -9.096  0.00  0.00    +0.000 C 
ATOM    916  C1' C   B  65       6.341  13.494  -7.758  0.00  0.00    +0.000 C 
BRANCH 916 917
ATOM    917  N1  C   B  65       6.304  12.564  -6.605  0.00  0.00    +0.000 N 
ATOM    918  C2  C   B  65       7.516  12.104  -6.065  0.00  0.00    +0.000 A 
ATOM    919  O2  C   B  65       8.584  12.482  -6.570  0.00  0.00    +0.000 OA
ATOM    920  N3  C   B  65       7.494  11.257  -5.003  0.00  0.00    +0.000 NA
ATOM    921  C4  C   B  65       6.325  10.868  -4.479  0.00  0.00    +0.000 A 
ATOM    922  N4  C   B  65       6.359  10.032  -3.430  0.00  0.00    +0.000 N 
ATOM    923  C5  C   B  65       5.081  11.321  -5.007  0.00  0.00    +0.000 A 
ATOM    924  C6  C   B  65       5.115  12.160  -6.057  0.00  0.00    +0.000 A 
ATOM    925  H   C   B  65       5.519   9.724  -3.018  0.00  0.00    +0.000 HD
ATOM    926  H   C   B  65       7.224   9.726  -3.072  0.00  0.00    +0.000 HD
ENDBRANCH 916 917
BRANCH 915 927
ATOM    927  O2' C   B  65       7.345  13.631  -9.938  0.00  0.00    +0.000 OA
ATOM    928  H   C   B  65       6.895  14.486 -10.029  0.00  0.00    +0.000 HD
ENDBRANCH 915 927
BRANCH 914 929
ATOM    929  O3' C   B  65       5.094  12.447 -11.023  0.00  0.00    +0.000 OA
ATOM    930  H   C   B  65       5.494  13.219 -11.453  0.00  0.00    +0.000 HD
ENDBRANCH 914 929
ENDBRANCH 911 912
ENDBRANCH 910 911
ENDBRANCH 906 910
ENDBRANCH 905 906
ENDBRANCH 888 905
ENDBRANCH 885 886
ENDBRANCH 884 885
ENDBRANCH 880 884
ENDBRANCH 879 880
ENDBRANCH 865 879
ENDBRANCH 862 863
ENDBRANCH 861 862
ENDBRANCH 857 861
ENDBRANCH 856 857
ENDBRANCH 841 856
ENDBRANCH 838 839
ENDBRANCH 837 838
ENDBRANCH 833 837
ENDBRANCH 832 833
ENDBRANCH 815 832
ENDBRANCH 812 813
ENDBRANCH 811 812
ENDBRANCH 807 811
ENDBRANCH 806 807
ENDBRANCH 787 806
ENDBRANCH 784 785
ENDBRANCH 783 784
ENDBRANCH 779 783
ENDBRANCH 778 779
ENDBRANCH 761 778
ENDBRANCH 758 759
ENDBRANCH 757 758
ENDBRANCH 753 757
ENDBRANCH 752 753
ENDBRANCH 737 752
ENDBRANCH 734 735
ENDBRANCH 733 734
ENDBRANCH 729 733
ENDBRANCH 728 729
ENDBRANCH 711 728
ENDBRANCH 708 709
ENDBRANCH 707 708
ENDBRANCH 703 707
ENDBRANCH 702 703
ENDBRANCH 685 702
ENDBRANCH 682 683
ENDBRANCH 681 682
ENDBRANCH 677 681
ENDBRANCH 676 677
ENDBRANCH 659 676
ENDBRANCH 656 657
ENDBRANCH 655 656
ENDBRANCH 651 655
ENDBRANCH 650 651
ENDBRANCH 633 650
ENDBRANCH 630 631
ENDBRANCH 629 630
ENDBRANCH 625 629
ENDBRANCH 624 625
ENDBRANCH 607 624
ENDBRANCH 604 605
ENDBRANCH 603 604
ENDBRANCH 599 603
ENDBRANCH 598 599
ENDBRANCH 584 598
ENDBRANCH 581 582
ENDBRANCH 580 581
ENDBRANCH 576 580
ENDBRANCH 575 576
ENDBRANCH 561 575
ENDBRANCH 558 559
ENDBRANCH 557 558
ENDBRANCH 553 557
ENDBRANCH 552 553
ENDBRANCH 538 552
ENDBRANCH 535 536
ENDBRANCH 534 535
ENDBRANCH 530 534
ENDBRANCH 529 530
ENDBRANCH 515 529
ENDBRANCH 512 513
ENDBRANCH 511 512
ENDBRANCH 507 511
ENDBRANCH 506 507
ENDBRANCH 489 506
ENDBRANCH 486 487
ENDBRANCH 485 486
ENDBRANCH 481 485
ENDBRANCH 480 481
ENDBRANCH 466 480
ENDBRANCH 463 464
ENDBRANCH 462 463
ENDBRANCH 458 462
ENDBRANCH 457 458
ENDBRANCH 443 457
ENDBRANCH 440 441
ENDBRANCH 439 440
ENDBRANCH 435 439
ENDBRANCH 434 435
ENDBRANCH 420 434
ENDBRANCH 417 418
ENDBRANCH 416 417
ENDBRANCH 412 416
ENDBRANCH 411 412
ENDBRANCH 396 411
ENDBRANCH 393 394
ENDBRANCH 392 393
ENDBRANCH 388 392
ENDBRANCH 387 388
ENDBRANCH 370 387
ENDBRANCH 367 368
ENDBRANCH 366 367
ENDBRANCH 362 366
ENDBRANCH 361 362
ENDBRANCH 347 361
ENDBRANCH 344 345
ENDBRANCH 343 344
ENDBRANCH 339 343
ENDBRANCH 338 339
ENDBRANCH 324 338
ENDBRANCH 321 322
ENDBRANCH 320 321
ENDBRANCH 316 320
ENDBRANCH 315 316
ENDBRANCH 300 315
ENDBRANCH 297 298
ENDBRANCH 296 297
ENDBRANCH 292 296
ENDBRANCH 291 292
ENDBRANCH 277 291
ENDBRANCH 274 275
ENDBRANCH 273 274
ENDBRANCH 269 273
ENDBRANCH 268 269
ENDBRANCH 254 268
ENDBRANCH 251 252
ENDBRANCH 250 251
ENDBRANCH 246 250
ENDBRANCH 245 246
ENDBRANCH 228 245
ENDBRANCH 225 226
ENDBRANCH 224 225
ENDBRANCH 220 224
ENDBRANCH 219 220
ENDBRANCH 205 219
ENDBRANCH 202 203
ENDBRANCH 201 202
ENDBRANCH 197 201
ENDBRANCH 196 197
ENDBRANCH 179 196
ENDBRANCH 176 177
ENDBRANCH 175 176
ENDBRANCH 171 175
ENDBRANCH 170 171
ENDBRANCH 153 170
ENDBRANCH 150 151
ENDBRANCH 149 150
ENDBRANCH 145 149
ENDBRANCH 144 145
ENDBRANCH 130 144
ENDBRANCH 127 128
ENDBRANCH 126 127
ENDBRANCH 122 126
ENDBRANCH 121 122
ENDBRANCH 104 121
ENDBRANCH 101 102
ENDBRANCH 100 101
ENDBRANCH  96 100
ENDBRANCH  95  96
ENDBRANCH  78  95
ENDBRANCH  75  76
ENDBRANCH  74  75
ENDBRANCH  70  74
ENDBRANCH  69  70
ENDBRANCH  52  69
ENDBRANCH  49  50
ENDBRANCH  48  49
ENDBRANCH  44  48
ENDBRANCH  43  44
ENDBRANCH  26  43
ENDBRANCH  23  24
ENDBRANCH  22  23
ENDBRANCH  18  22
ENDBRANCH  17  18
ENDBRANCH   3  17
BRANCH   1 931
ATOM    931  C5' U   B  28      26.993  26.378  28.156  0.00  0.00    +0.000 C 
BRANCH 931 932
ATOM    932  O5' U   B  28      27.939  26.120  27.123  0.00  0.00    +0.000 OA
BRANCH 932 933
ATOM    933  P   U   B  28      28.198  27.181  25.960  0.00  0.00    +0.000 P 
ATOM    934  OP2 U   B  28      29.239  26.626  25.055  0.00  0.00    +0.000 OA
BRANCH 933 935
ATOM    935  OP1 U   B  28      28.393  28.513  26.577  0.00  0.00    +0.000 OA
ATOM    936  H   U   B  28      28.552  29.171  25.882  0.00  0.00    +0.000 HD
ENDBRANCH 933 935
BRANCH 933 937
ATOM    937  O3' U   B  27      26.798  27.209  25.160  0.00  0.00    +0.000 OA
BRANCH 937 940
ATOM    938  C4' U   B  27      25.554  26.576  23.154  0.00  0.00    +0.000 C 
ATOM    939  O4' U   B  27      24.895  25.350  22.729  0.00  0.00    +0.000 OA
ATOM    940  C3' U   B  27      26.428  26.131  24.310  0.00  0.00    +0.000 C 
ATOM    941  C2' U   B  27      25.543  25.101  24.999  0.00  0.00    +0.000 C 
ATOM    942  C1' U   B  27      24.887  24.418  23.795  0.00  0.00    +0.000 C 
BRANCH 942 943
ATOM    943  N1  U   B  27      25.611  23.199  23.372  0.00  0.00    +0.000 N 
ATOM    944  C2  U   B  27      25.400  22.046  24.110  0.00  0.00    +0.000 A 
ATOM    945  O2  U   B  27      24.657  21.999  25.074  0.00  0.00    +0.000 OA
ATOM    946  N3  U   B  27      26.093  20.938  23.676  0.00  0.00    +0.000 N 
ATOM    947  C4  U   B  27      26.960  20.871  22.605  0.00  0.00    +0.000 A 
ATOM    948  O4  U   B  27      27.512  19.803  22.339  0.00  0.00    +0.000 OA
ATOM    949  C5  U   B  27      27.126  22.102  21.895  0.00  0.00    +0.000 A 
ATOM    950  C6  U   B  27      26.464  23.198  22.294  0.00  0.00    +0.000 A 
ATOM    951  H   U   B  27      25.955  20.106  24.184  0.00  0.00    +0.000 HD
ENDBRANCH 942 943
BRANCH 941 952
ATOM    952  O2' U   B  27      24.539  25.709  25.789  0.00  0.00    +0.000 OA
ATOM    953  H   U   B  27      24.012  26.308  25.237  0.00  0.00    +0.000 HD
ENDBRANCH 941 952
BRANCH 938 954
ATOM    954  C5' U   B  27      26.274  27.205  21.983  0.00  0.00    +0.000 C 
BRANCH 954 955
ATOM    955  O5' U   B  27      27.244  26.321  21.426  0.00  0.00    +0.000 OA
BRANCH 955 956
ATOM    956  P   U   B  27      27.955  26.653  20.039  0.00  0.00    +0.000 P 
ATOM    957  OP2 U   B  27      28.892  25.542  19.728  0.00  0.00    +0.000 OA
BRANCH 956 958
ATOM    958  OP1 U   B  27      28.459  28.045  20.093  0.00  0.00    +0.000 OA
ATOM    959  H   U   B  27      28.895  28.264  19.255  0.00  0.00    +0.000 HD
ENDBRANCH 956 958
BRANCH 956 960
ATOM    960  O3' U   B  26      26.742  26.612  18.971  0.00  0.00    +0.000 OA
BRANCH 960 963
ATOM    961  C4' U   B  26      25.589  25.406  17.181  0.00  0.00    +0.000 C 
ATOM    962  O4' U   B  26      24.665  24.280  17.163  0.00  0.00    +0.000 OA
ATOM    963  C3' U   B  26      26.170  25.371  18.579  0.00  0.00    +0.000 C 
ATOM    964  C2' U   B  26      24.958  24.979  19.412  0.00  0.00    +0.000 C 
ATOM    965  C1' U   B  26      24.276  23.963  18.487  0.00  0.00    +0.000 C 
BRANCH 965 966
ATOM    966  N1  U   B  26      24.681  22.573  18.789  0.00  0.00    +0.000 N 
ATOM    967  C2  U   B  26      24.060  21.952  19.859  0.00  0.00    +0.000 A 
ATOM    968  O2  U   B  26      23.210  22.496  20.542  0.00  0.00    +0.000 OA
ATOM    969  N3  U   B  26      24.467  20.660  20.105  0.00  0.00    +0.000 N 
ATOM    970  C4  U   B  26      25.417  19.946  19.405  0.00  0.00    +0.000 A 
ATOM    971  O4  U   B  26      25.680  18.792  19.747  0.00  0.00    +0.000 OA
ATOM    972  C5  U   B  26      26.013  20.657  18.316  0.00  0.00    +0.000 A 
ATOM    973  C6  U   B  26      25.636  21.915  18.051  0.00  0.00    +0.000 A 
ATOM    974  H   U   B  26      24.035  20.198  20.859  0.00  0.00    +0.000 HD
ENDBRANCH 965 966
BRANCH 964 975
ATOM    975  O2' U   B  26      24.083  26.072  19.618  0.00  0.00    +0.000 OA
ATOM    976  H   U   B  26      23.814  26.437  18.760  0.00  0.00    +0.000 HD
ENDBRANCH 964 975
BRANCH 961 977
ATOM    977  C5' U   B  26      26.576  25.279  16.046  0.00  0.00    +0.000 C 
BRANCH 977 978
ATOM    978  O5' U   B  26      27.298  24.054  16.110  0.00  0.00    +0.000 OA
BRANCH 978 979
ATOM    979  P   U   B  26      28.159  23.542  14.872  0.00  0.00    +0.000 P 
ATOM    980  OP1 U   B  26      29.012  24.657  14.400  0.00  0.00    +0.000 OA
BRANCH 979 981
ATOM    981  OP2 U   B  26      28.780  22.248  15.253  0.00  0.00    +0.000 OA
ATOM    982  H   U   B  26      29.311  21.914  14.513  0.00  0.00    +0.000 HD
ENDBRANCH 979 981
BRANCH 979 983
ATOM    983  O3' U   B  25      27.047  23.264  13.727  0.00  0.00    +0.000 OA
BRANCH 983 986
ATOM    984  C4' U   B  25      25.778  21.590  12.469  0.00  0.00    +0.000 C 
ATOM    985  O4' U   B  25      24.595  20.794  12.766  0.00  0.00    +0.000 OA
ATOM    986  C3' U   B  25      26.198  22.127  13.822  0.00  0.00    +0.000 C 
ATOM    987  C2' U   B  25      24.854  22.429  14.468  0.00  0.00    +0.000 C 
ATOM    988  C1' U   B  25      24.015  21.239  13.979  0.00  0.00    +0.000 C 
BRANCH 988 989
ATOM    989  N1  U   B  25      24.012  20.123  14.949  0.00  0.00    +0.000 N 
ATOM    990  C2  U   B  25      23.111  20.203  15.997  0.00  0.00    +0.000 A 
ATOM    991  O2  U   B  25      22.338  21.134  16.139  0.00  0.00    +0.000 OA
ATOM    992  N3  U   B  25      23.141  19.144  16.879  0.00  0.00    +0.000 N 
ATOM    993  C4  U   B  25      23.970  18.044  16.820  0.00  0.00    +0.000 A 
ATOM    994  O4  U   B  25      23.882  17.175  17.689  0.00  0.00    +0.000 OA
ATOM    995  C5  U   B  25      24.874  18.037  15.712  0.00  0.00    +0.000 A 
ATOM    996  C6  U   B  25      24.866  19.052  14.836  0.00  0.00    +0.000 A 
ATOM    997  H   U   B  25      22.504  19.177  17.629  0.00  0.00    +0.000 HD
ENDBRANCH 988 989
BRANCH 987 998
ATOM    998  O2' U   B  25      24.287  23.626  13.971  0.00  0.00    +0.000 OA
ATOM    999  H   U   B  25      24.207  23.570  13.006  0.00  0.00    +0.000 HD
ENDBRANCH 987 998
BRANCH 9841000
ATOM   1000  C5' U   B  25      26.796  20.741  11.746  0.00  0.00    +0.000 C 
BRANCH10001001
ATOM   1001  O5' U   B  25      27.200  19.625  12.529  0.00  0.00    +0.000 OA
BRANCH10011002
ATOM   1002  P   U   B  25      28.011  18.417  11.878  0.00  0.00    +0.000 P 
ATOM   1003  OP1 U   B  25      29.141  18.977  11.099  0.00  0.00    +0.000 OA
BRANCH10021004
ATOM   1004  OP2 U   B  25      28.273  17.416  12.943  0.00  0.00    +0.000 OA
ATOM   1005  H   U   B  25      28.767  16.669  12.570  0.00  0.00    +0.000 HD
ENDBRANCH10021004
BRANCH10021006
ATOM   1006  O3' U   B  24      26.956  17.793  10.821  0.00  0.00    +0.000 OA
BRANCH10061009
ATOM   1007  C4' U   B  24      25.495  15.898  10.325  0.00  0.00    +0.000 C 
ATOM   1008  O4' U   B  24      24.140  15.543  10.719  0.00  0.00    +0.000 OA
ATOM   1009  C3' U   B  24      25.873  17.002  11.290  0.00  0.00    +0.000 C 
ATOM   1010  C2' U   B  24      24.568  17.775  11.410  0.00  0.00    +0.000 C 
ATOM   1011  C1' U   B  24      23.543  16.632  11.398  0.00  0.00    +0.000 C 
BRANCH10111012
ATOM   1012  N1  U   B  24      23.169  16.199  12.762  0.00  0.00    +0.000 N 
ATOM   1013  C2  U   B  24      22.193  16.937  13.413  0.00  0.00    +0.000 A 
ATOM   1014  O2  U   B  24      21.643  17.902  12.912  0.00  0.00    +0.000 OA
ATOM   1015  N3  U   B  24      21.877  16.499  14.679  0.00  0.00    +0.000 N 
ATOM   1016  C4  U   B  24      22.431  15.425  15.346  0.00  0.00    +0.000 A 
ATOM   1017  O4  U   B  24      22.045  15.157  16.486  0.00  0.00    +0.000 OA
ATOM   1018  C5  U   B  24      23.432  14.719  14.609  0.00  0.00    +0.000 A 
ATOM   1019  C6  U   B  24      23.761  15.121  13.373  0.00  0.00    +0.000 A 
ATOM   1020  H   U   B  24      21.183  17.005  15.159  0.00  0.00    +0.000 HD
ENDBRANCH10111012
BRANCH10101021
ATOM   1021  O2' U   B  24      24.341  18.608  10.290  0.00  0.00    +0.000 OA
ATOM   1022  H   U   B  24      24.356  18.073   9.481  0.00  0.00    +0.000 HD
ENDBRANCH10101021
BRANCH10071023
ATOM   1023  C5' U   B  24      26.373  14.672  10.352  0.00  0.00    +0.000 C 
BRANCH10231024
ATOM   1024  O5' U   B  24      26.492  14.142  11.665  0.00  0.00    +0.000 OA
BRANCH10241025
ATOM   1025  P   U   B  24      27.207  12.745  11.926  0.00  0.00    +0.000 P 
ATOM   1026  OP1 U   B  24      28.510  12.749  11.224  0.00  0.00    +0.000 OA
BRANCH10251027
ATOM   1027  OP2 U   B  24      27.153  12.468  13.383  0.00  0.00    +0.000 OA
ATOM   1028  H   U   B  24      27.584  11.619  13.567  0.00  0.00    +0.000 HD
ENDBRANCH10251027
BRANCH10251029
ATOM   1029  O3' U   B  23      26.256  11.696  11.156  0.00  0.00    +0.000 OA
BRANCH10291032
ATOM   1030  C4' U   B  23      24.568   9.957  11.483  0.00  0.00    +0.000 C 
ATOM   1031  O4' U   B  23      23.121   9.976  11.626  0.00  0.00    +0.000 OA
ATOM   1032  C3' U   B  23      24.971  11.404  11.687  0.00  0.00    +0.000 C 
ATOM   1033  C2' U   B  23      23.844  12.146  10.986  0.00  0.00    +0.000 C 
ATOM   1034  C1' U   B  23      22.635  11.281  11.370  0.00  0.00    +0.000 C 
BRANCH10341035
ATOM   1035  N1  U   B  23      21.951  11.780  12.583  0.00  0.00    +0.000 N 
ATOM   1036  C2  U   B  23      21.069  12.837  12.424  0.00  0.00    +0.000 A 
ATOM   1037  O2  U   B  23      20.843  13.356  11.345  0.00  0.00    +0.000 OA
ATOM   1038  N3  U   B  23      20.457  13.264  13.581  0.00  0.00    +0.000 N 
ATOM   1039  C4  U   B  23      20.637  12.755  14.851  0.00  0.00    +0.000 A 
ATOM   1040  O4  U   B  23      20.014  13.251  15.794  0.00  0.00    +0.000 OA
ATOM   1041  C5  U   B  23      21.564  11.672  14.932  0.00  0.00    +0.000 A 
ATOM   1042  C6  U   B  23      22.175  11.232  13.823  0.00  0.00    +0.000 A 
ATOM   1043  H   U   B  23      19.823  14.012  13.493  0.00  0.00    +0.000 HD
ENDBRANCH10341035
BRANCH10331044
ATOM   1044  O2' U   B  23      23.996  12.127   9.579  0.00  0.00    +0.000 OA
ATOM   1045  H   U   B  23      24.055  11.209   9.273  0.00  0.00    +0.000 HD
ENDBRANCH10331044
BRANCH10301046
ATOM   1046  C5' U   B  23      25.166   8.970  12.454  0.00  0.00    +0.000 C 
BRANCH10461047
ATOM   1047  O5' U   B  23      24.980   9.388  13.800  0.00  0.00    +0.000 OA
BRANCH10471048
ATOM   1048  P   U   B  23      25.394   8.448  15.016  0.00  0.00    +0.000 P 
ATOM   1049  OP1 U   B  23      26.777   7.970  14.782  0.00  0.00    +0.000 OA
BRANCH10481050
ATOM   1050  OP2 U   B  23      25.058   9.153  16.276  0.00  0.00    +0.000 OA
ATOM   1051  H   U   B  23      25.647   9.916  16.387  0.00  0.00    +0.000 HD
ENDBRANCH10481050
BRANCH10481052
ATOM   1052  O3' C   B  22      24.420   7.197  14.846  0.00  0.00    +0.000 OA
BRANCH10521055
ATOM   1053  C4' C   B  22      22.510   6.041  15.830  0.00  0.00    +0.000 C 
ATOM   1054  O4' C   B  22      21.072   6.175  15.683  0.00  0.00    +0.000 OA
ATOM   1055  C3' C   B  22      23.057   7.314  15.220  0.00  0.00    +0.000 C 
ATOM   1056  C2' C   B  22      22.123   7.525  14.037  0.00  0.00    +0.000 C 
ATOM   1057  C1' C   B  22      20.781   7.087  14.641  0.00  0.00    +0.000 C 
BRANCH10571058
ATOM   1058  N1  C   B  22      20.013   8.226  15.203  0.00  0.00    +0.000 N 
ATOM   1059  C2  C   B  22      19.299   9.047  14.323  0.00  0.00    +0.000 A 
ATOM   1060  O2  C   B  22      19.328   8.803  13.108  0.00  0.00    +0.000 OA
ATOM   1061  N3  C   B  22      18.592  10.094  14.822  0.00  0.00    +0.000 NA
ATOM   1062  C4  C   B  22      18.580  10.330  16.136  0.00  0.00    +0.000 A 
ATOM   1063  N4  C   B  22      17.868  11.373  16.575  0.00  0.00    +0.000 N 
ATOM   1064  C5  C   B  22      19.299   9.511  17.051  0.00  0.00    +0.000 A 
ATOM   1065  C6  C   B  22      19.996   8.481  16.547  0.00  0.00    +0.000 A 
ATOM   1066  H   C   B  22      17.373  11.935  15.936  0.00  0.00    +0.000 HD
ATOM   1067  H   C   B  22      17.839  11.579  17.537  0.00  0.00    +0.000 HD
ENDBRANCH10571058
BRANCH10561068
ATOM   1068  O2' C   B  22      22.441   6.675  12.952  0.00  0.00    +0.000 OA
ATOM   1069  H   C   B  22      22.425   5.752  13.249  0.00  0.00    +0.000 HD
ENDBRANCH10561068
BRANCH10531070
ATOM   1070  C5' C   B  22      22.860   5.811  17.277  0.00  0.00    +0.000 C 
BRANCH10701071
ATOM   1071  O5' C   B  22      22.542   6.943  18.075  0.00  0.00    +0.000 OA
BRANCH10711072
ATOM   1072  P   C   B  22      22.311   6.800  19.641  0.00  0.00    +0.000 P 
ATOM   1073  OP2 C   B  22      21.775   8.085  20.146  0.00  0.00    +0.000 OA
BRANCH10721074
ATOM   1074  OP1 C   B  22      23.540   6.224  20.243  0.00  0.00    +0.000 OA
ATOM   1075  H   C   B  22      23.755   5.387  19.802  0.00  0.00    +0.000 HD
ENDBRANCH10721074
BRANCH10721076
ATOM   1076  O3' A   B  21      21.178   5.699  19.716  0.00  0.00    +0.000 OA
BRANCH10761079
ATOM   1077  C4' A   B  21      18.950   5.616  20.670  0.00  0.00    +0.000 C 
ATOM   1078  O4' A   B  21      17.617   5.513  20.103  0.00  0.00    +0.000 OA
ATOM   1079  C3' A   B  21      19.820   6.061  19.509  0.00  0.00    +0.000 C 
ATOM   1080  C2' A   B  21      19.176   5.352  18.328  0.00  0.00    +0.000 C 
ATOM   1081  C1' A   B  21      17.690   5.443  18.697  0.00  0.00    +0.000 C 
BRANCH10811082
ATOM   1082  N9  A   B  21      17.032   6.640  18.147  0.00  0.00    +0.000 N 
ATOM   1083  C8  A   B  21      16.498   7.694  18.847  0.00  0.00    +0.000 A 
ATOM   1084  N7  A   B  21      15.964   8.623  18.081  0.00  0.00    +0.000 NA
ATOM   1085  C5  A   B  21      16.161   8.144  16.793  0.00  0.00    +0.000 A 
ATOM   1086  C6  A   B  21      15.822   8.663  15.530  0.00  0.00    +0.000 A 
ATOM   1087  N1  A   B  21      16.161   7.939  14.440  0.00  0.00    +0.000 NA
ATOM   1088  C2  A   B  21      16.796   6.773  14.616  0.00  0.00    +0.000 A 
ATOM   1089  N3  A   B  21      17.166   6.178  15.751  0.00  0.00    +0.000 NA
ATOM   1090  C4  A   B  21      16.815   6.926  16.817  0.00  0.00    +0.000 A 
BRANCH10861091
ATOM   1091  N6  A   B  21      15.188   9.833  15.352  0.00  0.00    +0.000 N 
ATOM   1092  H   A   B  21      14.977  10.145  14.442  0.00  0.00    +0.000 HD
ATOM   1093  H   A   B  21      14.934  10.379  16.131  0.00  0.00    +0.000 HD
ENDBRANCH10861091
ENDBRANCH10811082
BRANCH10801094
ATOM   1094  O2' A   B  21      19.559   3.990  18.252  0.00  0.00    +0.000 OA
ATOM   1095  H   A   B  21      19.339   3.545  19.085  0.00  0.00    +0.000 HD
ENDBRANCH10801094
BRANCH10771096
ATOM   1096  C5' A   B  21      18.932   6.561  21.845  0.00  0.00    +0.000 C 
BRANCH10961097
ATOM   1097  O5' A   B  21      18.163   6.019  22.895  0.00  0.00    +0.000 OA
BRANCH10971098
ATOM   1098  P   A   B  21      17.594   6.945  24.059  0.00  0.00    +0.000 P 
ATOM   1099  OP2 A   B  21      17.304   8.286  23.486  0.00  0.00    +0.000 OA
BRANCH10981100
ATOM   1100  OP1 A   B  21      18.500   6.827  25.228  0.00  0.00    +0.000 OA
ATOM   1101  H   A   B  21      19.343   7.263  25.029  0.00  0.00    +0.000 HD
ENDBRANCH10981100
BRANCH10981102
ATOM   1102  O3' A   B  20      16.233   6.226  24.419  0.00  0.00    +0.000 OA
BRANCH11021105
ATOM   1103  C4' A   B  20      13.811   6.023  24.294  0.00  0.00    +0.000 C 
ATOM   1104  O4' A   B  20      12.879   5.720  23.225  0.00  0.00    +0.000 OA
ATOM   1105  C3' A   B  20      15.099   6.354  23.572  0.00  0.00    +0.000 C 
ATOM   1106  C2' A   B  20      15.080   5.367  22.414  0.00  0.00    +0.000 C 
ATOM   1107  C1' A   B  20      13.588   5.342  22.062  0.00  0.00    +0.000 C 
BRANCH11071108
ATOM   1108  N9  A   B  20      13.241   6.280  20.978  0.00  0.00    +0.000 N 
ATOM   1109  C8  A   B  20      12.713   7.542  21.085  0.00  0.00    +0.000 A 
ATOM   1110  N7  A   B  20      12.513   8.125  19.924  0.00  0.00    +0.000 NA
ATOM   1111  C5  A   B  20      12.938   7.187  18.994  0.00  0.00    +0.000 A 
ATOM   1112  C6  A   B  20      12.988   7.194  17.589  0.00  0.00    +0.000 A 
ATOM   1113  N1  A   B  20      13.469   6.095  16.969  0.00  0.00    +0.000 NA
ATOM   1114  C2  A   B  20      13.873   5.059  17.714  0.00  0.00    +0.000 A 
ATOM   1115  N3  A   B  20      13.875   4.931  19.043  0.00  0.00    +0.000 NA
ATOM   1116  C4  A   B  20      13.390   6.044  19.629  0.00  0.00    +0.000 A 
BRANCH11121117
ATOM   1117  N6  A   B  20      12.586   8.231  16.838  0.00  0.00    +0.000 N 
ATOM   1118  H   A   B  20      12.644   8.180  15.857  0.00  0.00    +0.000 HD
ATOM   1119  H   A   B  20      12.233   9.043  17.269  0.00  0.00    +0.000 HD
ENDBRANCH11121117
ENDBRANCH11071108
BRANCH11061120
ATOM   1120  O2' A   B  20      15.489   4.072  22.817  0.00  0.00    +0.000 OA
ATOM   1121  H   A   B  20      14.925   3.766  23.544  0.00  0.00    +0.000 HD
ENDBRANCH11061120
BRANCH11031122
ATOM   1122  C5' A   B  20      13.261   7.123  25.165  0.00  0.00    +0.000 C 
BRANCH11221123
ATOM   1123  O5' A   B  20      13.206   8.356  24.472  0.00  0.00    +0.000 OA
BRANCH11231124
ATOM   1124  P   A   B  20      12.348   9.566  25.038  0.00  0.00    +0.000 P 
ATOM   1125  OP2 A   B  20      12.239  10.591  23.976  0.00  0.00    +0.000 OA
BRANCH11241126
ATOM   1126  OP1 A   B  20      12.885   9.935  26.372  0.00  0.00    +0.000 OA
ATOM   1127  H   A   B  20      13.757  10.346  26.267  0.00  0.00    +0.000 HD
ENDBRANCH11241126
BRANCH11241128
ATOM   1128  O3' A   B  19      10.926   8.899  25.252  0.00  0.00    +0.000 OA
BRANCH11281131
ATOM   1129  C4' A   B  19       8.624   9.125  24.530  0.00  0.00    +0.000 C 
ATOM   1130  O4' A   B  19       7.785   8.394  23.600  0.00  0.00    +0.000 OA
ATOM   1131  C3' A   B  19      10.038   8.722  24.156  0.00  0.00    +0.000 C 
ATOM   1132  C2' A   B  19       9.862   7.273  23.724  0.00  0.00    +0.000 C 
ATOM   1133  C1' A   B  19       8.509   7.338  23.009  0.00  0.00    +0.000 C 
BRANCH11331134
ATOM   1134  N9  A   B  19       8.630   7.623  21.574  0.00  0.00    +0.000 N 
ATOM   1135  C8  A   B  19       8.222   8.758  20.913  0.00  0.00    +0.000 A 
ATOM   1136  N7  A   B  19       8.456   8.727  19.622  0.00  0.00    +0.000 NA
ATOM   1137  C5  A   B  19       9.057   7.493  19.418  0.00  0.00    +0.000 A 
ATOM   1138  C6  A   B  19       9.545   6.855  18.263  0.00  0.00    +0.000 A 
ATOM   1139  N1  A   B  19      10.088   5.622  18.403  0.00  0.00    +0.000 NA
ATOM   1140  C2  A   B  19      10.136   5.072  19.623  0.00  0.00    +0.000 A 
ATOM   1141  N3  A   B  19       9.709   5.569  20.785  0.00  0.00    +0.000 NA
ATOM   1142  C4  A   B  19       9.172   6.799  20.609  0.00  0.00    +0.000 A 
BRANCH11381143
ATOM   1143  N6  A   B  19       9.500   7.405  17.039  0.00  0.00    +0.000 N 
ATOM   1144  H   A   B  19       9.857   6.913  16.265  0.00  0.00    +0.000 HD
ATOM   1145  H   A   B  19       9.110   8.301  16.916  0.00  0.00    +0.000 HD
ENDBRANCH11381143
ENDBRANCH11331134
BRANCH11321146
ATOM   1146  O2' A   B  19       9.766   6.394  24.835  0.00  0.00    +0.000 OA
ATOM   1147  H   A   B  19       9.037   6.677  25.409  0.00  0.00    +0.000 HD
ENDBRANCH11321146
BRANCH11291148
ATOM   1148  C5' A   B  19       8.354  10.605  24.416  0.00  0.00    +0.000 C 
BRANCH11481149
ATOM   1149  O5' A   B  19       7.061  10.908  24.875  0.00  0.00    +0.000 OA
BRANCH11491150
ATOM   1150  P   A   B  19       6.440  12.362  24.670  0.00  0.00    +0.000 P 
ATOM   1151  OP2 A   B  19       6.980  12.930  23.405  0.00  0.00    +0.000 OA
BRANCH11501152
ATOM   1152  OP1 A   B  19       6.605  13.114  25.937  0.00  0.00    +0.000 OA
ATOM   1153  H   A   B  19       6.233  14.004  25.835  0.00  0.00    +0.000 HD
ENDBRANCH11501152
BRANCH11501154
ATOM   1154  O3' G   B  18       4.908  12.042  24.462  0.00  0.00    +0.000 OA
BRANCH11541157
ATOM   1155  C4' G   B  18       2.989  11.890  22.985  0.00  0.00    +0.000 C 
ATOM   1156  O4' G   B  18       2.491  10.864  22.092  0.00  0.00    +0.000 OA
ATOM   1157  C3' G   B  18       4.440  11.504  23.230  0.00  0.00    +0.000 C 
ATOM   1158  C2' G   B  18       4.391   9.981  23.196  0.00  0.00    +0.000 C 
ATOM   1159  C1' G   B  18       3.321   9.722  22.133  0.00  0.00    +0.000 C 
BRANCH11591160
ATOM   1160  N9  G   B  18       3.878   9.495  20.790  0.00  0.00    +0.000 N 
ATOM   1161  C8  G   B  18       3.766  10.327  19.701  0.00  0.00    +0.000 A 
ATOM   1162  N7  G   B  18       4.358   9.852  18.638  0.00  0.00    +0.000 NA
ATOM   1163  C5  G   B  18       4.888   8.638  19.041  0.00  0.00    +0.000 A 
ATOM   1164  C6  G   B  18       5.632   7.671  18.316  0.00  0.00    +0.000 A 
ATOM   1165  O6  G   B  18       5.985   7.695  17.130  0.00  0.00    +0.000 OA
ATOM   1166  N1  G   B  18       5.978   6.581  19.109  0.00  0.00    +0.000 NA
ATOM   1167  C2  G   B  18       5.645   6.440  20.435  0.00  0.00    +0.000 A 
ATOM   1168  N2  G   B  18       6.068   5.314  21.041  0.00  0.00    +0.000 N 
ATOM   1169  N3  G   B  18       4.946   7.330  21.125  0.00  0.00    +0.000 N 
ATOM   1170  C4  G   B  18       4.600   8.399  20.366  0.00  0.00    +0.000 A 
ATOM   1171  H   G   B  18       6.588   4.648  20.535  0.00  0.00    +0.000 HD
ATOM   1172  H   G   B  18       5.858   5.157  21.990  0.00  0.00    +0.000 HD
ATOM   1173  H   G   B  18       4.707   7.227  22.074  0.00  0.00    +0.000 HD
ENDBRANCH11591160
BRANCH11581174
ATOM   1174  O2' G   B  18       3.953   9.441  24.434  0.00  0.00    +0.000 OA
ATOM   1175  H   G   B  18       3.085   9.811  24.659  0.00  0.00    +0.000 HD
ENDBRANCH11581174
BRANCH11551176
ATOM   1176  C5' G   B  18       2.789  13.262  22.384  0.00  0.00    +0.000 C 
BRANCH11761177
ATOM   1177  O5' G   B  18       1.423  13.592  22.322  0.00  0.00    +0.000 OA
BRANCH11771178
ATOM   1178  P   G   B  18       0.838  14.818  23.126  0.00  0.00    +0.000 P 
ATOM   1179  OP2 G   B  18      -0.024  15.594  22.195  0.00  0.00    +0.000 OA
BRANCH11781180
ATOM   1180  OP1 G   B  18       1.939  15.494  23.848  0.00  0.00    +0.000 OA
ATOM   1181  H   G   B  18       2.529  15.924  23.209  0.00  0.00    +0.000 HD
ENDBRANCH11781180
BRANCH11781182
ATOM   1182  O3' C   B  17      -0.091  14.137  24.200  0.00  0.00    +0.000 OA
BRANCH11821185
ATOM   1183  C4' C   B  17      -2.221  13.208  23.515  0.00  0.00    +0.000 C 
ATOM   1184  O4' C   B  17      -3.012  12.965  24.715  0.00  0.00    +0.000 OA
ATOM   1185  C3' C   B  17      -0.767  12.919  23.888  0.00  0.00    +0.000 C 
ATOM   1186  C2' C   B  17      -0.897  12.061  25.140  0.00  0.00    +0.000 C 
ATOM   1187  C1' C   B  17      -2.155  12.639  25.788  0.00  0.00    +0.000 C 
BRANCH11871188
ATOM   1188  N1  C   B  17      -2.863  11.703  26.686  0.00  0.00    +0.000 N 
ATOM   1189  C2  C   B  17      -3.127  12.112  28.003  0.00  0.00    +0.000 A 
ATOM   1190  O2  C   B  17      -2.775  13.242  28.369  0.00  0.00    +0.000 OA
ATOM   1191  N3  C   B  17      -3.775  11.263  28.837  0.00  0.00    +0.000 NA
ATOM   1192  C4  C   B  17      -4.146  10.055  28.405  0.00  0.00    +0.000 A 
ATOM   1193  N4  C   B  17      -4.775   9.257  29.264  0.00  0.00    +0.000 N 
ATOM   1194  C5  C   B  17      -3.882   9.618  27.074  0.00  0.00    +0.000 A 
ATOM   1195  C6  C   B  17      -3.245  10.468  26.256  0.00  0.00    +0.000 A 
ATOM   1196  H   C   B  17      -5.064   8.359  28.981  0.00  0.00    +0.000 HD
ATOM   1197  H   C   B  17      -4.952   9.564  30.182  0.00  0.00    +0.000 HD
ENDBRANCH11871188
BRANCH11861198
ATOM   1198  O2' C   B  17       0.201  12.136  26.022  0.00  0.00    +0.000 OA
ATOM   1199  H   C   B  17       0.328  13.056  26.303  0.00  0.00    +0.000 HD
ENDBRANCH11861198
BRANCH11831200
ATOM   1200  C5' C   B  17      -2.762  12.372  22.380  0.00  0.00    +0.000 C 
BRANCH12001201
ATOM   1201  O5' C   B  17      -2.475  10.993  22.571  0.00  0.00    +0.000 OA
BRANCH12011202
ATOM   1202  P   C   B  17      -2.799   9.929  21.430  0.00  0.00    +0.000 P 
ATOM   1203  OP1 C   B  17      -2.211  10.405  20.162  0.00  0.00    +0.000 OA
BRANCH12021204
ATOM   1204  OP2 C   B  17      -2.441   8.588  21.949  0.00  0.00    +0.000 OA
ATOM   1205  H   C   B  17      -2.629   7.919  21.272  0.00  0.00    +0.000 HD
ENDBRANCH12021204
BRANCH12021206
ATOM   1206  O3' C   B  16      -4.390  10.039  21.303  0.00  0.00    +0.000 OA
BRANCH12061209
ATOM   1207  C4' C   B  16      -6.402   8.720  21.701  0.00  0.00    +0.000 C 
ATOM   1208  O4' C   B  16      -7.384   8.690  22.762  0.00  0.00    +0.000 OA
ATOM   1209  C3' C   B  16      -5.230   9.479  22.298  0.00  0.00    +0.000 C 
ATOM   1210  C2' C   B  16      -5.930  10.531  23.151  0.00  0.00    +0.000 C 
ATOM   1211  C1' C   B  16      -7.142   9.752  23.666  0.00  0.00    +0.000 C 
BRANCH12111212
ATOM   1212  N1  C   B  16      -6.943   9.200  25.027  0.00  0.00    +0.000 N 
ATOM   1213  C2  C   B  16      -7.442   9.929  26.114  0.00  0.00    +0.000 A 
ATOM   1214  O2  C   B  16      -8.029  11.001  25.910  0.00  0.00    +0.000 OA
ATOM   1215  N3  C   B  16      -7.274   9.440  27.371  0.00  0.00    +0.000 NA
ATOM   1216  C4  C   B  16      -6.639   8.279  27.557  0.00  0.00    +0.000 A 
ATOM   1217  N4  C   B  16      -6.501   7.847  28.811  0.00  0.00    +0.000 N 
ATOM   1218  C5  C   B  16      -6.117   7.526  26.467  0.00  0.00    +0.000 A 
ATOM   1219  C6  C   B  16      -6.292   8.017  25.228  0.00  0.00    +0.000 A 
ATOM   1220  H   C   B  16      -6.039   6.996  28.991  0.00  0.00    +0.000 HD
ATOM   1221  H   C   B  16      -6.861   8.379  29.557  0.00  0.00    +0.000 HD
ENDBRANCH12111212
BRANCH12101222
ATOM   1222  O2' C   B  16      -6.379  11.623  22.376  0.00  0.00    +0.000 OA
ATOM   1223  H   C   B  16      -6.964  11.301  21.672  0.00  0.00    +0.000 HD
ENDBRANCH12101222
BRANCH12071224
ATOM   1224  C5' C   B  16      -6.109   7.319  21.248  0.00  0.00    +0.000 C 
BRANCH12241225
ATOM   1225  O5' C   B  16      -5.714   6.525  22.360  0.00  0.00    +0.000 OA
BRANCH12251226
ATOM   1226  P   C   B  16      -5.269   5.013  22.148  0.00  0.00    +0.000 P 
ATOM   1227  OP2 C   B  16      -6.386   4.298  21.495  0.00  0.00    +0.000 OA
BRANCH12261228
ATOM   1228  OP1 C   B  16      -4.720   4.496  23.430  0.00  0.00    +0.000 OA
ATOM   1229  H   C   B  16      -4.444   3.573  23.315  0.00  0.00    +0.000 HD
ENDBRANCH12261228
BRANCH12261230
ATOM   1230  O3' U   B  15      -4.102   5.172  21.108  0.00  0.00    +0.000 OA
BRANCH12301233
ATOM   1231  C4' U   B  15      -1.906   4.224  21.428  0.00  0.00    +0.000 C 
ATOM   1232  O4' U   B  15      -1.039   4.690  20.356  0.00  0.00    +0.000 OA
ATOM   1233  C3' U   B  15      -3.293   4.043  20.818  0.00  0.00    +0.000 C 
ATOM   1234  C2' U   B  15      -3.014   3.955  19.326  0.00  0.00    +0.000 C 
ATOM   1235  C1' U   B  15      -1.783   4.845  19.170  0.00  0.00    +0.000 C 
BRANCH12351236
ATOM   1236  N1  U   B  15      -0.947   4.457  18.020  0.00  0.00    +0.000 N 
ATOM   1237  C2  U   B  15      -0.720   5.392  17.025  0.00  0.00    +0.000 A 
ATOM   1238  O2  U   B  15      -1.158   6.535  17.072  0.00  0.00    +0.000 OA
ATOM   1239  N3  U   B  15       0.051   4.952  15.974  0.00  0.00    +0.000 N 
ATOM   1240  C4  U   B  15       0.603   3.695  15.826  0.00  0.00    +0.000 A 
ATOM   1241  O4  U   B  15       1.270   3.445  14.821  0.00  0.00    +0.000 OA
ATOM   1242  C5  U   B  15       0.322   2.782  16.895  0.00  0.00    +0.000 A 
ATOM   1243  C6  U   B  15      -0.425   3.186  17.931  0.00  0.00    +0.000 A 
ATOM   1244  H   U   B  15       0.227   5.600  15.254  0.00  0.00    +0.000 HD
ENDBRANCH12351236
BRANCH12341245
ATOM   1245  O2' U   B  15      -4.074   4.390  18.505  0.00  0.00    +0.000 OA
ATOM   1246  H   U   B  15      -4.285   5.314  18.712  0.00  0.00    +0.000 HD
ENDBRANCH12341245
BRANCH12311247
ATOM   1247  C5' U   B  15      -1.322   2.966  22.026  0.00  0.00    +0.000 C 
BRANCH12471248
ATOM   1248  O5' U   B  15      -1.240   1.935  21.053  0.00  0.00    +0.000 OA
BRANCH12481249
ATOM   1249  P   U   B  15      -0.491   0.569  21.383  0.00  0.00    +0.000 P 
ATOM   1250  OP2 U   B  15      -0.298  -0.162  20.098  0.00  0.00    +0.000 OA
BRANCH12491251
ATOM   1251  OP1 U   B  15      -1.192  -0.097  22.507  0.00  0.00    +0.000 OA
ATOM   1252  H   U   B  15      -2.065  -0.399  22.210  0.00  0.00    +0.000 HD
ENDBRANCH12491251
BRANCH12491253
ATOM   1253  O3' A   B  14       0.929   1.048  21.906  0.00  0.00    +0.000 OA
BRANCH12531256
ATOM   1254  C4' A   B  14       3.306   1.087  21.372  0.00  0.00    +0.000 C 
ATOM   1255  O4' A   B  14       4.172   2.061  20.751  0.00  0.00    +0.000 OA
ATOM   1256  C3' A   B  14       1.906   1.566  21.019  0.00  0.00    +0.000 C 
ATOM   1257  C2' A   B  14       2.054   3.078  21.103  0.00  0.00    +0.000 C 
ATOM   1258  C1' A   B  14       3.473   3.278  20.569  0.00  0.00    +0.000 C 
BRANCH12581259
ATOM   1259  N9  A   B  14       3.509   3.639  19.143  0.00  0.00    +0.000 N 
ATOM   1260  C8  A   B  14       3.933   2.870  18.086  0.00  0.00    +0.000 A 
ATOM   1261  N7  A   B  14       3.853   3.479  16.927  0.00  0.00    +0.000 NA
ATOM   1262  C5  A   B  14       3.344   4.734  17.241  0.00  0.00    +0.000 A 
ATOM   1263  C6  A   B  14       3.027   5.854  16.456  0.00  0.00    +0.000 A 
ATOM   1264  N1  A   B  14       2.536   6.946  17.084  0.00  0.00    +0.000 NA
ATOM   1265  C2  A   B  14       2.380   6.908  18.410  0.00  0.00    +0.000 A 
ATOM   1266  N3  A   B  14       2.643   5.915  19.258  0.00  0.00    +0.000 NA
ATOM   1267  C4  A   B  14       3.129   4.844  18.600  0.00  0.00    +0.000 A 
BRANCH12631268
ATOM   1268  N6  A   B  14       3.185   5.894  15.127  0.00  0.00    +0.000 N 
ATOM   1269  H   A   B  14       2.946   6.708  14.627  0.00  0.00    +0.000 HD
ATOM   1270  H   A   B  14       3.541   5.110  14.650  0.00  0.00    +0.000 HD
ENDBRANCH12631268
ENDBRANCH12581259
BRANCH12571271
ATOM   1271  O2' A   B  14       1.992   3.542  22.439  0.00  0.00    +0.000 OA
ATOM   1272  H   A   B  14       2.673   3.098  22.968  0.00  0.00    +0.000 HD
ENDBRANCH12571271
BRANCH12541273
ATOM   1273  C5' A   B  14       3.663  -0.305  20.900  0.00  0.00    +0.000 C 
BRANCH12731274
ATOM   1274  O5' A   B  14       3.596  -0.392  19.482  0.00  0.00    +0.000 OA
BRANCH12741275
ATOM   1275  P   A   B  14       4.110  -1.701  18.722  0.00  0.00    +0.000 P 
ATOM   1276  OP2 A   B  14       3.966  -1.463  17.265  0.00  0.00    +0.000 OA
BRANCH12751277
ATOM   1277  OP1 A   B  14       3.465  -2.881  19.344  0.00  0.00    +0.000 OA
ATOM   1278  H   A   B  14       3.765  -3.687  18.896  0.00  0.00    +0.000 HD
ENDBRANCH12751277
BRANCH12751279
ATOM   1279  O3' C   B  13       5.665  -1.756  19.073  0.00  0.00    +0.000 OA
BRANCH12791282
ATOM   1280  C4' C   B  13       7.995  -1.297  18.426  0.00  0.00    +0.000 C 
ATOM   1281  O4' C   B  13       8.745  -0.073  18.236  0.00  0.00    +0.000 OA
ATOM   1282  C3' C   B  13       6.563  -0.802  18.527  0.00  0.00    +0.000 C 
ATOM   1283  C2' C   B  13       6.748   0.420  19.419  0.00  0.00    +0.000 C 
ATOM   1284  C1' C   B  13       8.052   0.994  18.862  0.00  0.00    +0.000 C 
BRANCH12841285
ATOM   1285  N1  C   B  13       7.792   2.077  17.889  0.00  0.00    +0.000 N 
ATOM   1286  C2  C   B  13       7.421   3.335  18.397  0.00  0.00    +0.000 A 
ATOM   1287  O2  C   B  13       7.344   3.489  19.624  0.00  0.00    +0.000 OA
ATOM   1288  N3  C   B  13       7.153   4.350  17.540  0.00  0.00    +0.000 NA
ATOM   1289  C4  C   B  13       7.245   4.148  16.221  0.00  0.00    +0.000 A 
ATOM   1290  N4  C   B  13       6.970   5.179  15.421  0.00  0.00    +0.000 N 
ATOM   1291  C5  C   B  13       7.619   2.883  15.675  0.00  0.00    +0.000 A 
ATOM   1292  C6  C   B  13       7.879   1.885  16.535  0.00  0.00    +0.000 A 
ATOM   1293  H   C   B  13       7.026   5.072  14.444  0.00  0.00    +0.000 HD
ATOM   1294  H   C   B  13       6.711   6.047  15.808  0.00  0.00    +0.000 HD
ENDBRANCH12841285
BRANCH12831295
ATOM   1295  O2' C   B  13       6.935   0.066  20.772  0.00  0.00    +0.000 OA
ATOM   1296  H   C   B  13       7.691  -0.537  20.847  0.00  0.00    +0.000 HD
ENDBRANCH12831295
BRANCH12801297
ATOM   1297  C5' C   B  13       8.302  -2.299  17.335  0.00  0.00    +0.000 C 
BRANCH12971298
ATOM   1298  O5' C   B  13       8.242  -1.727  16.043  0.00  0.00    +0.000 OA
BRANCH12981299
ATOM   1299  P   C   B  13       8.909  -2.471  14.796  0.00  0.00    +0.000 P 
ATOM   1300  OP2 C   B  13       8.533  -1.737  13.568  0.00  0.00    +0.000 OA
BRANCH12991301
ATOM   1301  OP1 C   B  13       8.617  -3.922  14.909  0.00  0.00    +0.000 OA
ATOM   1302  H   C   B  13       9.015  -4.391  14.159  0.00  0.00    +0.000 HD
ENDBRANCH12991301
BRANCH12991303
ATOM   1303  O3' U   B  12      10.472  -2.278  15.037  0.00  0.00    +0.000 OA
BRANCH13031306
ATOM   1304  C4' U   B  12      12.480  -1.044  14.364  0.00  0.00    +0.000 C 
ATOM   1305  O4' U   B  12      13.050   0.231  14.759  0.00  0.00    +0.000 OA
ATOM   1306  C3' U   B  12      11.067  -0.996  14.918  0.00  0.00    +0.000 C 
ATOM   1307  C2' U   B  12      11.283  -0.297  16.254  0.00  0.00    +0.000 C 
ATOM   1308  C1' U   B  12      12.345   0.739  15.877  0.00  0.00    +0.000 C 
BRANCH13081309
ATOM   1309  N1  U   B  12      11.748   2.045  15.519  0.00  0.00    +0.000 N 
ATOM   1310  C2  U   B  12      11.395   2.892  16.561  0.00  0.00    +0.000 A 
ATOM   1311  O2  U   B  12      11.559   2.601  17.732  0.00  0.00    +0.000 OA
ATOM   1312  N3  U   B  12      10.841   4.093  16.181  0.00  0.00    +0.000 N 
ATOM   1313  C4  U   B  12      10.606   4.523  14.892  0.00  0.00    +0.000 A 
ATOM   1314  O4  U   B  12      10.098   5.631  14.709  0.00  0.00    +0.000 OA
ATOM   1315  C5  U   B  12      10.994   3.594  13.872  0.00  0.00    +0.000 A 
ATOM   1316  C6  U   B  12      11.537   2.417  14.212  0.00  0.00    +0.000 A 
ATOM   1317  H   U   B  12      10.586   4.710  16.905  0.00  0.00    +0.000 HD
ENDBRANCH13081309
BRANCH13071318
ATOM   1318  O2' U   B  12      11.815  -1.174  17.230  0.00  0.00    +0.000 OA
ATOM   1319  H   U   B  12      12.641  -1.562  16.901  0.00  0.00    +0.000 HD
ENDBRANCH13071318
BRANCH13041320
ATOM   1320  C5' U   B  12      12.594  -1.222  12.870  0.00  0.00    +0.000 C 
BRANCH13201321
ATOM   1321  O5' U   B  12      11.834  -0.246  12.171  0.00  0.00    +0.000 OA
BRANCH13211322
ATOM   1322  P   U   B  12      11.989  -0.058  10.595  0.00  0.00    +0.000 P 
ATOM   1323  OP1 U   B  12      11.850  -1.389   9.955  0.00  0.00    +0.000 OA
BRANCH13221324
ATOM   1324  OP2 U   B  12      11.114   1.060  10.174  0.00  0.00    +0.000 OA
ATOM   1325  H   U   B  12      11.194   1.190   9.216  0.00  0.00    +0.000 HD
ENDBRANCH13221324
BRANCH13221326
ATOM   1326  O3' U   B  11      13.515   0.401  10.426  0.00  0.00    +0.000 OA
BRANCH13261329
ATOM   1327  C4' U   B  11      15.048   2.219   9.870  0.00  0.00    +0.000 C 
ATOM   1328  O4' U   B  11      15.605   3.324  10.622  0.00  0.00    +0.000 OA
ATOM   1329  C3' U   B  11      13.898   1.735  10.729  0.00  0.00    +0.000 C 
ATOM   1330  C2' U   B  11      14.462   1.894  12.137  0.00  0.00    +0.000 C 
ATOM   1331  C1' U   B  11      15.271   3.186  11.992  0.00  0.00    +0.000 C 
BRANCH13311332
ATOM   1332  N1  U   B  11      14.513   4.381  12.425  0.00  0.00    +0.000 N 
ATOM   1333  C2  U   B  11      14.401   4.609  13.792  0.00  0.00    +0.000 A 
ATOM   1334  O2  U   B  11      14.886   3.869  14.629  0.00  0.00    +0.000 OA
ATOM   1335  N3  U   B  11      13.695   5.735  14.142  0.00  0.00    +0.000 N 
ATOM   1336  C4  U   B  11      13.101   6.639  13.288  0.00  0.00    +0.000 A 
ATOM   1337  O4  U   B  11      12.497   7.607  13.756  0.00  0.00    +0.000 OA
ATOM   1338  C5  U   B  11      13.259   6.339  11.897  0.00  0.00    +0.000 A 
ATOM   1339  C6  U   B  11      13.945   5.248  11.522  0.00  0.00    +0.000 A 
ATOM   1340  H   U   B  11      13.604   5.915  15.106  0.00  0.00    +0.000 HD
ENDBRANCH13311332
BRANCH13301341
ATOM   1341  O2' U   B  11      15.338   0.832  12.477  0.00  0.00    +0.000 OA
ATOM   1342  H   U   B  11      16.049   0.776  11.819  0.00  0.00    +0.000 HD
ENDBRANCH13301341
BRANCH13271343
ATOM   1343  C5' U   B  11      14.681   2.670   8.479  0.00  0.00    +0.000 C 
BRANCH13431344
ATOM   1344  O5' U   B  11      13.684   3.683   8.502  0.00  0.00    +0.000 OA
BRANCH13441345
ATOM   1345  P   U   B  11      13.208   4.411   7.167  0.00  0.00    +0.000 P 
ATOM   1346  OP1 U   B  11      12.862   3.365   6.176  0.00  0.00    +0.000 OA
BRANCH13451347
ATOM   1347  OP2 U   B  11      12.211   5.443   7.528  0.00  0.00    +0.000 OA
ATOM   1348  H   U   B  11      11.910   5.897   6.725  0.00  0.00    +0.000 HD
ENDBRANCH13451347
BRANCH13451349
ATOM   1349  O3' U   B  10      14.515   5.162   6.648  0.00  0.00    +0.000 OA
BRANCH13491352
ATOM   1350  C4' U   B  10      15.754   7.249   6.364  0.00  0.00    +0.000 C 
ATOM   1351  O4' U   B  10      16.533   8.078   7.261  0.00  0.00    +0.000 OA
ATOM   1352  C3' U   B  10      14.953   6.353   7.289  0.00  0.00    +0.000 C 
ATOM   1353  C2' U   B  10      15.952   6.094   8.416  0.00  0.00    +0.000 C 
ATOM   1354  C1' U   B  10      16.639   7.459   8.521  0.00  0.00    +0.000 C 
BRANCH13541355
ATOM   1355  N1  U   B  10      15.985   8.322   9.539  0.00  0.00    +0.000 N 
ATOM   1356  C2  U   B  10      16.204   8.031  10.876  0.00  0.00    +0.000 A 
ATOM   1357  O2  U   B  10      16.896   7.107  11.245  0.00  0.00    +0.000 OA
ATOM   1358  N3  U   B  10      15.574   8.863  11.772  0.00  0.00    +0.000 N 
ATOM   1359  C4  U   B  10      14.765   9.937  11.473  0.00  0.00    +0.000 A 
ATOM   1360  O4  U   B  10      14.271  10.591  12.388  0.00  0.00    +0.000 OA
ATOM   1361  C5  U   B  10      14.589  10.179  10.071  0.00  0.00    +0.000 A 
ATOM   1362  C6  U   B  10      15.194   9.385   9.172  0.00  0.00    +0.000 A 
ATOM   1363  H   U   B  10      15.716   8.671  12.727  0.00  0.00    +0.000 HD
ENDBRANCH13541355
BRANCH13531364
ATOM   1364  O2' U   B  10      16.915   5.125   8.046  0.00  0.00    +0.000 OA
ATOM   1365  H   U   B  10      17.362   5.408   7.233  0.00  0.00    +0.000 HD
ENDBRANCH13531364
BRANCH13501366
ATOM   1366  C5' U   B  10      14.941   8.120   5.441  0.00  0.00    +0.000 C 
BRANCH13661367
ATOM   1367  O5' U   B  10      15.796   8.725   4.456  0.00  0.00    +0.000 OA
BRANCH13671368
ATOM   1368  P   U   B  10      15.202   9.308   3.093  0.00  0.00    +0.000 P 
ATOM   1369  OP2 U   B  10      16.328   9.424   2.145  0.00  0.00    +0.000 OA
BRANCH13681370
ATOM   1370  OP1 U   B  10      14.381  10.504   3.408  0.00  0.00    +0.000 OA
ATOM   1371  H   U   B  10      14.013  10.869   2.588  0.00  0.00    +0.000 HD
ENDBRANCH13681370
BRANCH13681372
ATOM   1372  O3' A   B   9      14.227   8.182   2.571  0.00  0.00    +0.000 OA
BRANCH13721375
ATOM   1373  C4' A   B   9      13.164   8.054   0.385  0.00  0.00    +0.000 C 
ATOM   1374  O4' A   B   9      12.365   6.845   0.363  0.00  0.00    +0.000 OA
ATOM   1375  C3' A   B   9      14.397   7.730   1.225  0.00  0.00    +0.000 C 
ATOM   1376  C2' A   B   9      14.524   6.216   1.146  0.00  0.00    +0.000 C 
ATOM   1377  C1' A   B   9      13.089   5.754   0.888  0.00  0.00    +0.000 C 
BRANCH13771378
ATOM   1378  N9  A   B   9      13.031   4.648  -0.081  0.00  0.00    +0.000 N 
ATOM   1379  C8  A   B   9      14.088   4.042  -0.732  0.00  0.00    +0.000 A 
ATOM   1380  N7  A   B   9      13.736   3.092  -1.562  0.00  0.00    +0.000 NA
ATOM   1381  C5  A   B   9      12.352   3.066  -1.449  0.00  0.00    +0.000 A 
ATOM   1382  C6  A   B   9      11.375   2.275  -2.074  0.00  0.00    +0.000 A 
ATOM   1383  N1  A   B   9      10.079   2.502  -1.743  0.00  0.00    +0.000 NA
ATOM   1384  C2  A   B   9       9.801   3.459  -0.847  0.00  0.00    +0.000 A 
ATOM   1385  N3  A   B   9      10.634   4.265  -0.196  0.00  0.00    +0.000 NA
ATOM   1386  C4  A   B   9      11.906   4.017  -0.543  0.00  0.00    +0.000 A 
BRANCH13821387
ATOM   1387  N6  A   B   9      11.655   1.317  -2.968  0.00  0.00    +0.000 N 
ATOM   1388  H   A   B   9      10.926   0.794  -3.374  0.00  0.00    +0.000 HD
ATOM   1389  H   A   B   9      12.590   1.136  -3.219  0.00  0.00    +0.000 HD
ENDBRANCH13821387
ENDBRANCH13771378
BRANCH13761390
ATOM   1390  O2' A   B   9      15.050   5.617   2.310  0.00  0.00    +0.000 OA
ATOM   1391  H   A   B   9      14.479   5.824   3.066  0.00  0.00    +0.000 HD
ENDBRANCH13761390
BRANCH13731392
ATOM   1392  C5' A   B   9      13.468   8.443  -1.046  0.00  0.00    +0.000 C 
BRANCH13921393
ATOM   1393  O5' A   B   9      14.264   7.452  -1.687  0.00  0.00    +0.000 OA
BRANCH13931394
ATOM   1394  P   A   B   9      15.016   7.742  -3.062  0.00  0.00    +0.000 P 
ATOM   1395  OP2 A   B   9      15.763   6.512  -3.432  0.00  0.00    +0.000 OA
BRANCH13941396
ATOM   1396  OP1 A   B   9      15.729   9.029  -2.934  0.00  0.00    +0.000 OA
ATOM   1397  H   A   B   9      16.194   9.225  -3.762  0.00  0.00    +0.000 HD
ENDBRANCH13941396
BRANCH13941398
ATOM   1398  O3' U   B   8      13.834   7.921  -4.089  0.00  0.00    +0.000 OA
BRANCH13981401
ATOM   1399  C4' U   B   8      13.559   7.119  -6.360  0.00  0.00    +0.000 C 
ATOM   1400  O4' U   B   8      12.552   6.309  -7.018  0.00  0.00    +0.000 OA
ATOM   1401  C3' U   B   8      13.362   6.844  -4.885  0.00  0.00    +0.000 C 
ATOM   1402  C2' U   B   8      11.854   6.637  -4.764  0.00  0.00    +0.000 C 
ATOM   1403  C1' U   B   8      11.510   5.998  -6.115  0.00  0.00    +0.000 C 
BRANCH14031404
ATOM   1404  N1  U   B   8      11.367   4.533  -6.058  0.00  0.00    +0.000 N 
ATOM   1405  C2  U   B   8      10.087   4.019  -5.908  0.00  0.00    +0.000 A 
ATOM   1406  O2  U   B   8       9.099   4.720  -5.818  0.00  0.00    +0.000 OA
ATOM   1407  N3  U   B   8      10.009   2.647  -5.872  0.00  0.00    +0.000 N 
ATOM   1408  C4  U   B   8      11.056   1.756  -5.971  0.00  0.00    +0.000 A 
ATOM   1409  O4  U   B   8      10.825   0.546  -5.923  0.00  0.00    +0.000 OA
ATOM   1410  C5  U   B   8      12.344   2.365  -6.125  0.00  0.00    +0.000 A 
ATOM   1411  C6  U   B   8      12.450   3.698  -6.163  0.00  0.00    +0.000 A 
ATOM   1412  H   U   B   8       9.110   2.260  -5.764  0.00  0.00    +0.000 HD
ENDBRANCH14031404
BRANCH14021413
ATOM   1413  O2' U   B   8      11.165   7.865  -4.646  0.00  0.00    +0.000 OA
ATOM   1414  H   U   B   8      11.377   8.429  -5.406  0.00  0.00    +0.000 HD
ENDBRANCH14021413
BRANCH13991415
ATOM   1415  C5' U   B   8      14.920   6.773  -6.911  0.00  0.00    +0.000 C 
BRANCH14151416
ATOM   1416  O5' U   B   8      15.243   5.413  -6.635  0.00  0.00    +0.000 OA
BRANCH14161417
ATOM   1417  P   U   B   8      15.996   4.512  -7.716  0.00  0.00    +0.000 P 
ATOM   1418  OP1 U   B   8      17.374   5.034  -7.885  0.00  0.00    +0.000 OA
BRANCH14171419
ATOM   1419  OP2 U   B   8      15.790   3.089  -7.351  0.00  0.00    +0.000 OA
ATOM   1420  H   U   B   8      16.240   2.521  -7.996  0.00  0.00    +0.000 HD
ENDBRANCH14171419
BRANCH14171421
ATOM   1421  O3' C   B   7      15.188   4.833  -9.054  0.00  0.00    +0.000 OA
BRANCH14211424
ATOM   1422  C4' C   B   7      14.847   3.291 -10.904  0.00  0.00    +0.000 C 
ATOM   1423  O4' C   B   7      13.671   2.813 -11.607  0.00  0.00    +0.000 OA
ATOM   1424  C3' C   B   7      14.308   3.867  -9.614  0.00  0.00    +0.000 C 
ATOM   1425  C2' C   B   7      12.969   4.464 -10.047  0.00  0.00    +0.000 C 
ATOM   1426  C1' C   B   7      12.515   3.475 -11.127  0.00  0.00    +0.000 C 
BRANCH14261427
ATOM   1427  N1  C   B   7      11.561   2.464 -10.630  0.00  0.00    +0.000 N 
ATOM   1428  C2  C   B   7      10.200   2.796 -10.558  0.00  0.00    +0.000 A 
ATOM   1429  O2  C   B   7       9.838   3.930 -10.902  0.00  0.00    +0.000 OA
ATOM   1430  N3  C   B   7       9.316   1.870 -10.109  0.00  0.00    +0.000 NA
ATOM   1431  C4  C   B   7       9.740   0.656  -9.744  0.00  0.00    +0.000 A 
ATOM   1432  N4  C   B   7       8.824  -0.219  -9.310  0.00  0.00    +0.000 N 
ATOM   1433  C5  C   B   7      11.115   0.294  -9.812  0.00  0.00    +0.000 A 
ATOM   1434  C6  C   B   7      11.981   1.214 -10.259  0.00  0.00    +0.000 A 
ATOM   1435  H   C   B   7       7.876   0.042  -9.267  0.00  0.00    +0.000 HD
ATOM   1436  H   C   B   7       9.099  -1.123  -9.034  0.00  0.00    +0.000 HD
ENDBRANCH14261427
BRANCH14251437
ATOM   1437  O2' C   B   7      13.126   5.742 -10.624  0.00  0.00    +0.000 OA
ATOM   1438  H   C   B   7      13.737   5.685 -11.375  0.00  0.00    +0.000 HD
ENDBRANCH14251437
BRANCH14221439
ATOM   1439  C5' C   B   7      15.840   2.164 -10.748  0.00  0.00    +0.000 C 
BRANCH14391440
ATOM   1440  O5' C   B   7      15.289   1.110  -9.973  0.00  0.00    +0.000 OA
BRANCH14401441
ATOM   1441  P   C   B   7      16.020  -0.304  -9.865  0.00  0.00    +0.000 P 
ATOM   1442  OP1 C   B   7      17.406  -0.074  -9.394  0.00  0.00    +0.000 OA
BRANCH14411443
ATOM   1443  OP2 C   B   7      15.132  -1.229  -9.115  0.00  0.00    +0.000 OA
ATOM   1444  H   C   B   7      14.266  -1.269  -9.550  0.00  0.00    +0.000 HD
ENDBRANCH14411443
BRANCH14411445
ATOM   1445  O3' A   B   6      16.112  -0.795 -11.384  0.00  0.00    +0.000 OA
BRANCH14451448
ATOM   1446  C4' A   B   6      15.285  -2.454 -12.976  0.00  0.00    +0.000 C 
ATOM   1447  O4' A   B   6      14.178  -2.479 -13.908  0.00  0.00    +0.000 OA
ATOM   1448  C3' A   B   6      14.958  -1.305 -12.038  0.00  0.00    +0.000 C 
ATOM   1449  C2' A   B   6      14.304  -0.302 -12.977  0.00  0.00    +0.000 C 
ATOM   1450  C1' A   B   6      13.524  -1.224 -13.915  0.00  0.00    +0.000 C 
BRANCH14501451
ATOM   1451  N9  A   B   6      12.133  -1.420 -13.481  0.00  0.00    +0.000 N 
ATOM   1452  C8  A   B   6      11.570  -2.552 -12.946  0.00  0.00    +0.000 A 
ATOM   1453  N7  A   B   6      10.300  -2.422 -12.655  0.00  0.00    +0.000 NA
ATOM   1454  C5  A   B   6      10.005  -1.118 -13.022  0.00  0.00    +0.000 A 
ATOM   1455  C6  A   B   6       8.821  -0.364 -12.972  0.00  0.00    +0.000 A 
ATOM   1456  N6  A   B   6       7.659  -0.839 -12.504  0.00  0.00    +0.000 N 
ATOM   1457  N1  A   B   6       8.868   0.909 -13.420  0.00  0.00    +0.000 NA
ATOM   1458  C2  A   B   6      10.028   1.382 -13.888  0.00  0.00    +0.000 A 
ATOM   1459  N3  A   B   6      11.204   0.771 -13.987  0.00  0.00    +0.000 NA
ATOM   1460  C4  A   B   6      11.122  -0.492 -13.534  0.00  0.00    +0.000 A 
ATOM   1461  H   A   B   6       6.860  -0.263 -12.493  0.00  0.00    +0.000 HD
ATOM   1462  H   A   B   6       7.604  -1.764 -12.171  0.00  0.00    +0.000 HD
ENDBRANCH14501451
BRANCH14491463
ATOM   1463  O2' A   B   6      15.258   0.428 -13.724  0.00  0.00    +0.000 OA
ATOM   1464  H   A   B   6      15.822  -0.188 -14.217  0.00  0.00    +0.000 HD
ENDBRANCH14491463
BRANCH14461465
ATOM   1465  C5' A   B   6      15.433  -3.806 -12.321  0.00  0.00    +0.000 C 
BRANCH14651466
ATOM   1466  O5' A   B   6      14.257  -4.158 -11.605  0.00  0.00    +0.000 OA
BRANCH14661467
ATOM   1467  P   A   B   6      14.072  -5.620 -10.997  0.00  0.00    +0.000 P 
ATOM   1468  OP2 A   B   6      12.735  -5.690 -10.363  0.00  0.00    +0.000 OA
BRANCH14671469
ATOM   1469  OP1 A   B   6      15.284  -5.948 -10.208  0.00  0.00    +0.000 OA
ATOM   1470  H   A   B   6      16.070  -5.853 -10.768  0.00  0.00    +0.000 HD
ENDBRANCH14671469
BRANCH14671471
ATOM   1471  O3' U   B   5      14.074  -6.556 -12.291  0.00  0.00    +0.000 OA
BRANCH14711474
ATOM   1472  C4' U   B   5      12.651  -7.887 -13.772  0.00  0.00    +0.000 C 
ATOM   1473  O4' U   B   5      11.863  -7.581 -14.951  0.00  0.00    +0.000 OA
ATOM   1474  C3' U   B   5      12.967  -6.532 -13.179  0.00  0.00    +0.000 C 
ATOM   1475  C2' U   B   5      13.210  -5.696 -14.430  0.00  0.00    +0.000 C 
ATOM   1476  C1' U   B   5      12.142  -6.259 -15.378  0.00  0.00    +0.000 C 
BRANCH14761477
ATOM   1477  N1  U   B   5      10.894  -5.469 -15.336  0.00  0.00    +0.000 N 
ATOM   1478  C2  U   B   5      10.867  -4.274 -16.043  0.00  0.00    +0.000 A 
ATOM   1479  O2  U   B   5      11.819  -3.866 -16.689  0.00  0.00    +0.000 OA
ATOM   1480  N3  U   B   5       9.688  -3.575 -15.969  0.00  0.00    +0.000 N 
ATOM   1481  C4  U   B   5       8.555  -3.940 -15.275  0.00  0.00    +0.000 A 
ATOM   1482  O4  U   B   5       7.566  -3.203 -15.304  0.00  0.00    +0.000 OA
ATOM   1483  C5  U   B   5       8.657  -5.183 -14.569  0.00  0.00    +0.000 A 
ATOM   1484  C6  U   B   5       9.795  -5.887 -14.626  0.00  0.00    +0.000 A 
ATOM   1485  H   U   B   5       9.648  -2.724 -16.463  0.00  0.00    +0.000 HD
ENDBRANCH14761477
BRANCH14751486
ATOM   1486  O2' U   B   5      14.491  -5.923 -14.986  0.00  0.00    +0.000 OA
ATOM   1487  H   U   B   5      14.597  -6.868 -15.178  0.00  0.00    +0.000 HD
ENDBRANCH14751486
BRANCH14721488
ATOM   1488  C5' U   B   5      11.895  -8.835 -12.877  0.00  0.00    +0.000 C 
BRANCH14881489
ATOM   1489  O5' U   B   5      10.695  -8.249 -12.388  0.00  0.00    +0.000 OA
BRANCH14891490
ATOM   1490  P   U   B   5       9.489  -9.162 -11.900  0.00  0.00    +0.000 P 
ATOM   1491  OP2 U   B   5       8.307  -8.299 -11.684  0.00  0.00    +0.000 OA
BRANCH14901492
ATOM   1492  OP1 U   B   5       9.973 -10.032 -10.802  0.00  0.00    +0.000 OA
ATOM   1493  H   U   B   5      10.749 -10.530 -11.102  0.00  0.00    +0.000 HD
ENDBRANCH14901492
BRANCH14901494
ATOM   1494  O3' A   B   4       9.244 -10.078 -13.178  0.00  0.00    +0.000 OA
BRANCH14941497
ATOM   1495  C4' A   B   4       7.198 -10.432 -14.436  0.00  0.00    +0.000 C 
ATOM   1496  O4' A   B   4       6.832 -10.259 -15.823  0.00  0.00    +0.000 OA
ATOM   1497  C3' A   B   4       8.457  -9.602 -14.261  0.00  0.00    +0.000 C 
ATOM   1498  C2' A   B   4       9.124  -9.726 -15.619  0.00  0.00    +0.000 C 
ATOM   1499  C1' A   B   4       7.904  -9.694 -16.542  0.00  0.00    +0.000 C 
BRANCH14991500
ATOM   1500  N9  A   B   4       7.518  -8.324 -16.904  0.00  0.00    +0.000 N 
ATOM   1501  C8  A   B   4       6.368  -7.665 -16.542  0.00  0.00    +0.000 A 
ATOM   1502  N7  A   B   4       6.292  -6.443 -17.009  0.00  0.00    +0.000 NA
ATOM   1503  C5  A   B   4       7.472  -6.287 -17.725  0.00  0.00    +0.000 A 
ATOM   1504  C6  A   B   4       7.991  -5.211 -18.464  0.00  0.00    +0.000 A 
ATOM   1505  N1  A   B   4       9.193  -5.384 -19.059  0.00  0.00    +0.000 NA
ATOM   1506  C2  A   B   4       9.820  -6.555 -18.914  0.00  0.00    +0.000 A 
ATOM   1507  N3  A   B   4       9.432  -7.636 -18.248  0.00  0.00    +0.000 NA
ATOM   1508  C4  A   B   4       8.233  -7.434 -17.669  0.00  0.00    +0.000 A 
BRANCH15041509
ATOM   1509  N6  A   B   4       7.359  -4.037 -18.601  0.00  0.00    +0.000 N 
ATOM   1510  H   A   B   4       7.769  -3.316 -19.131  0.00  0.00    +0.000 HD
ATOM   1511  H   A   B   4       6.484  -3.896 -18.172  0.00  0.00    +0.000 HD
ENDBRANCH15041509
ENDBRANCH14991500
BRANCH14981512
ATOM   1512  O2' A   B   4       9.798 -10.959 -15.776  0.00  0.00    +0.000 OA
ATOM   1513  H   A   B   4       9.176 -11.689 -15.628  0.00  0.00    +0.000 HD
ENDBRANCH14981512
BRANCH14951514
ATOM   1514  C5' A   B   4       6.055 -10.003 -13.557  0.00  0.00    +0.000 C 
BRANCH15141515
ATOM   1515  O5' A   B   4       4.960 -10.869 -13.713  0.00  0.00    +0.000 OA
BRANCH15151516
ATOM   1516  P   A   B   4       3.500 -10.408 -13.278  0.00  0.00    +0.000 P 
ATOM   1517  OP2 A   B   4       3.466  -8.918 -13.241  0.00  0.00    +0.000 OA
BRANCH15161518
ATOM   1518  OP1 A   B   4       3.117 -11.175 -12.062  0.00  0.00    +0.000 OA
ATOM   1519  H   A   B   4       3.190 -12.125 -12.243  0.00  0.00    +0.000 HD
ENDBRANCH15161518
BRANCH15161520
ATOM   1520  O3' A   B   3       2.667 -10.929 -14.493  0.00  0.00    +0.000 OA
BRANCH15201523
ATOM   1521  C4' A   B   3       1.053 -10.203 -16.139  0.00  0.00    +0.000 C 
ATOM   1522  O4' A   B   3       1.127  -9.933 -17.555  0.00  0.00    +0.000 OA
ATOM   1523  C3' A   B   3       2.497 -10.148 -15.665  0.00  0.00    +0.000 C 
ATOM   1524  C2' A   B   3       3.268 -10.683 -16.862  0.00  0.00    +0.000 C 
ATOM   1525  C1' A   B   3       2.437 -10.148 -18.035  0.00  0.00    +0.000 C 
BRANCH15251526
ATOM   1526  N9  A   B   3       2.933  -8.872 -18.585  0.00  0.00    +0.000 N 
ATOM   1527  C8  A   B   3       2.288  -7.659 -18.542  0.00  0.00    +0.000 A 
ATOM   1528  N7  A   B   3       2.951  -6.688 -19.124  0.00  0.00    +0.000 NA
ATOM   1529  C5  A   B   3       4.107  -7.299 -19.578  0.00  0.00    +0.000 A 
ATOM   1530  C6  A   B   3       5.218  -6.802 -20.281  0.00  0.00    +0.000 A 
ATOM   1531  N1  A   B   3       6.207  -7.674 -20.588  0.00  0.00    +0.000 NA
ATOM   1532  C2  A   B   3       6.077  -8.955 -20.207  0.00  0.00    +0.000 A 
ATOM   1533  N3  A   B   3       5.078  -9.535 -19.544  0.00  0.00    +0.000 NA
ATOM   1534  C4  A   B   3       4.114  -8.641 -19.255  0.00  0.00    +0.000 A 
BRANCH15301535
ATOM   1535  N6  A   B   3       5.345  -5.521 -20.660  0.00  0.00    +0.000 N 
ATOM   1536  H   A   B   3       6.147  -5.230 -21.151  0.00  0.00    +0.000 HD
ATOM   1537  H   A   B   3       4.636  -4.872 -20.447  0.00  0.00    +0.000 HD
ENDBRANCH15301535
ENDBRANCH15251526
BRANCH15241538
ATOM   1538  O2' A   B   3       3.277 -12.097 -16.908  0.00  0.00    +0.000 OA
ATOM   1539  H   A   B   3       2.365 -12.426 -16.919  0.00  0.00    +0.000 HD
ENDBRANCH15241538
BRANCH15211540
ATOM   1540  C5' A   B   3       0.133  -9.223 -15.456  0.00  0.00    +0.000 C 
BRANCH15401541
ATOM   1541  O5' A   B   3      -1.167  -9.240 -15.954  0.00  0.00    +0.000 OA
BRANCH15411542
ATOM   1542  P   A   B   3      -2.205 -10.406 -15.683  0.00  0.00    +0.000 P 
ATOM   1543  OP1 A   B   3      -1.542 -11.727 -15.844  0.00  0.00    +0.000 OA
BRANCH15421544
ATOM   1544  OP2 A   B   3      -2.883 -10.096 -14.407  0.00  0.00    +0.000 OA
ATOM   1545  H   A   B   3      -3.265  -9.206 -14.452  0.00  0.00    +0.000 HD
ENDBRANCH15421544
BRANCH15421546
ATOM   1546  O3' U   B   2      -3.195 -10.258 -16.880  0.00  0.00    +0.000 OA
BRANCH15461549
ATOM   1547  C4' U   B   2      -3.956  -9.153 -18.899  0.00  0.00    +0.000 C 
ATOM   1548  O4' U   B   2      -3.430  -9.050 -20.244  0.00  0.00    +0.000 OA
ATOM   1549  C3' U   B   2      -2.766  -9.592 -18.064  0.00  0.00    +0.000 C 
ATOM   1550  C2' U   B   2      -2.002 -10.498 -19.023  0.00  0.00    +0.000 C 
ATOM   1551  C1' U   B   2      -2.260  -9.824 -20.382  0.00  0.00    +0.000 C 
BRANCH15511552
ATOM   1552  N1  U   B   2      -1.151  -8.946 -20.843  0.00  0.00    +0.000 N 
ATOM   1553  C2  U   B   2       0.030  -9.530 -21.275  0.00  0.00    +0.000 A 
ATOM   1554  O2  U   B   2       0.221 -10.734 -21.282  0.00  0.00    +0.000 OA
ATOM   1555  N3  U   B   2       1.000  -8.650 -21.694  0.00  0.00    +0.000 N 
ATOM   1556  C4  U   B   2       0.902  -7.276 -21.738  0.00  0.00    +0.000 A 
ATOM   1557  O4  U   B   2       1.856  -6.621 -22.152  0.00  0.00    +0.000 OA
ATOM   1558  C5  U   B   2      -0.350  -6.747 -21.287  0.00  0.00    +0.000 A 
ATOM   1559  C6  U   B   2      -1.311  -7.581 -20.866  0.00  0.00    +0.000 A 
ATOM   1560  H   U   B   2       1.852  -9.042 -21.993  0.00  0.00    +0.000 HD
ENDBRANCH15511552
BRANCH15501561
ATOM   1561  O2' U   B   2      -2.532 -11.814 -19.050  0.00  0.00    +0.000 OA
ATOM   1562  H   U   B   2      -3.471 -11.780 -19.291  0.00  0.00    +0.000 HD
ENDBRANCH15501561
BRANCH15471563
ATOM   1563  C5' U   B   2      -4.590  -7.859 -18.450  0.00  0.00    +0.000 C 
BRANCH15631564
ATOM   1564  O5' U   B   2      -5.392  -7.278 -19.444  0.00  0.00    +0.000 OA
BRANCH15641565
ATOM   1565  P   U   B   2      -6.932  -7.573 -19.678  0.00  0.00    +0.000 P 
ATOM   1566  OP2 U   B   2      -7.220  -8.982 -19.392  0.00  0.00    +0.000 OA
BRANCH15651567
ATOM   1567  O3' C   B   1      -7.687  -6.684 -18.714  0.00  0.00    +0.000 OA
BRANCH15671570
ATOM   1568  C4' C   B   1      -8.808  -7.138 -16.646  0.00  0.00    +0.000 C 
ATOM   1569  O4' C   B   1      -9.142  -6.279 -15.545  0.00  0.00    +0.000 OA
ATOM   1570  C3' C   B   1      -7.592  -6.515 -17.308  0.00  0.00    +0.000 C 
ATOM   1571  C2' C   B   1      -7.663  -5.050 -16.936  0.00  0.00    +0.000 C 
ATOM   1572  C1' C   B   1      -8.541  -5.031 -15.684  0.00  0.00    +0.000 C 
BRANCH15721573
ATOM   1573  N1  C   B   1      -7.823  -4.728 -14.437  0.00  0.00    +0.000 N 
ATOM   1574  C2  C   B   1      -7.389  -3.433 -14.189  0.00  0.00    +0.000 A 
ATOM   1575  O2  C   B   1      -7.608  -2.555 -15.042  0.00  0.00    +0.000 OA
ATOM   1576  N3  C   B   1      -6.743  -3.154 -13.033  0.00  0.00    +0.000 NA
ATOM   1577  C4  C   B   1      -6.527  -4.125 -12.136  0.00  0.00    +0.000 A 
ATOM   1578  N4  C   B   1      -5.890  -3.799 -11.011  0.00  0.00    +0.000 N 
ATOM   1579  C5  C   B   1      -6.965  -5.460 -12.357  0.00  0.00    +0.000 A 
ATOM   1580  C6  C   B   1      -7.604  -5.715 -13.504  0.00  0.00    +0.000 A 
ATOM   1581  H   C   B   1      -5.590  -2.873 -10.866  0.00  0.00    +0.000 HD
ATOM   1582  H   C   B   1      -5.720  -4.485 -10.325  0.00  0.00    +0.000 HD
ENDBRANCH15721573
BRANCH15711583
ATOM   1583  O2' C   B   1      -8.302  -4.275 -17.935  0.00  0.00    +0.000 OA
ATOM   1584  H   C   B   1      -9.198  -4.616 -18.085  0.00  0.00    +0.000 HD
ENDBRANCH15711583
BRANCH15681585
ATOM   1585  C5' C   B   1      -8.603  -8.543 -16.124  0.00  0.00    +0.000 C 
BRANCH15851586
ATOM   1586  O5' C   B   1      -9.385  -8.743 -14.959  0.00  0.00    +0.000 OA
BRANCH15861587
ATOM   1587  P   C   B   1     -10.226 -10.003 -14.559  0.00  0.00    +0.000 P 
ATOM   1588  OP1 C   B   1      -9.744 -11.063 -15.362  0.00  0.00    +0.000 OA
BRANCH15871589
ATOM   1589  OP2 C   B   1      -9.941 -10.211 -13.131  0.00  0.00    +0.000 OA
ATOM   1590  H   C   B   1      -9.074 -10.636 -13.033  0.00  0.00    +0.000 HD
ENDBRANCH15871589
BRANCH15871591
ATOM   1591  OP3 C   B   1     -11.540  -9.369 -14.507  0.00  0.00    +0.000 OA
ATOM   1592  H   C   B   1     -11.843  -9.178 -15.409  0.00  0.00    +0.000 HD
ENDBRANCH15871591
ENDBRANCH15861587
ENDBRANCH15851586
ENDBRANCH15681585
ENDBRANCH15671570
ENDBRANCH15651567
BRANCH15651593
ATOM   1593  OP1 U   B   2      -7.251  -7.015 -21.022  0.00  0.00    +0.000 OA
BRANCH15931600
ATOM   1594  N9  A   B  76      -9.087 -10.231 -23.847  0.00  0.00    +0.000 N 
ATOM   1595  C8  A   B  76     -10.323 -10.801 -23.686  0.00  0.00    +0.000 A 
ATOM   1596  N7  A   B  76     -11.041 -10.241 -22.734  0.00  0.00    +0.000 NA
ATOM   1597  C5  A   B  76     -10.218  -9.244 -22.241  0.00  0.00    +0.000 A 
ATOM   1598  C6  A   B  76     -10.393  -8.286 -21.227  0.00  0.00    +0.000 C 
ATOM   1599  N1  A   B  76      -9.369  -7.431 -20.990  0.00  0.00    +0.000 NA
ATOM   1600  C2  A   B  76      -8.252  -7.538 -21.722  0.00  0.00    +0.000 C 
ATOM   1601  N3  A   B  76      -7.975  -8.394 -22.705  0.00  0.00    +0.000 NA
ATOM   1602  C4  A   B  76      -9.012  -9.225 -22.917  0.00  0.00    +0.000 A 
BRANCH15941607
ATOM   1603  C4' A   B  76      -8.318 -12.435 -26.242  0.00  0.00    +0.000 C 
ATOM   1604  O4' A   B  76      -8.647 -11.037 -25.989  0.00  0.00    +0.000 OA
ATOM   1605  C3' A   B  76      -7.841 -12.966 -24.903  0.00  0.00    +0.000 C 
ATOM   1606  C2' A   B  76      -7.144 -11.741 -24.299  0.00  0.00    +0.000 C 
ATOM   1607  C1' A   B  76      -8.032 -10.601 -24.802  0.00  0.00    +0.000 C 
BRANCH16061608
ATOM   1608  O2' A   B  76      -5.833 -11.586 -24.802  0.00  0.00    +0.000 OA
ATOM   1609  H   A   B  76      -5.863 -11.530 -25.770  0.00  0.00    +0.000 HD
ENDBRANCH16061608
BRANCH16051610
ATOM   1610  O3' A   B  76      -6.974 -14.108 -25.054  0.00  0.00    +0.000 OA
ATOM   1611  H   A   B  76      -6.219 -13.869 -25.615  0.00  0.00    +0.000 HD
ENDBRANCH16051610
BRANCH16031612
ATOM   1612  C5' A   B  76      -9.525 -13.126 -26.797  0.00  0.00    +0.000 C 
BRANCH16121613
ATOM   1613  O5' A   B  76      -9.228 -14.464 -27.124  0.00  0.00    +0.000 OA
BRANCH16131614
ATOM   1614  P   A   B  76     -10.008 -15.215 -28.273  0.00  0.00    +0.000 P 
ATOM   1615  OP1 A   B  76      -9.626 -16.650 -28.230  0.00  0.00    +0.000 OA
BRANCH16141616
ATOM   1616  OP2 A   B  76     -11.451 -14.863 -28.187  0.00  0.00    +0.000 OA
ATOM   1617  H   A   B  76     -11.938 -15.321 -28.890  0.00  0.00    +0.000 HD
ENDBRANCH16141616
BRANCH16141618
ATOM   1618  O3' C   B  75      -9.379 -14.546 -29.573  0.00  0.00    +0.000 OA
BRANCH16181621
ATOM   1619  C4' C   B  75      -7.708 -14.458 -31.329  0.00  0.00    +0.000 C 
ATOM   1620  O4' C   B  75      -7.458 -15.251 -32.512  0.00  0.00    +0.000 OA
ATOM   1621  C3' C   B  75      -8.608 -15.325 -30.474  0.00  0.00    +0.000 C 
ATOM   1622  C2' C   B  75      -9.448 -16.062 -31.500  0.00  0.00    +0.000 C 
ATOM   1623  C1' C   B  75      -8.441 -16.257 -32.629  0.00  0.00    +0.000 C 
BRANCH16231624
ATOM   1624  N1  C   B  75      -7.773 -17.587 -32.598  0.00  0.00    +0.000 N 
ATOM   1625  C2  C   B  75      -8.316 -18.623 -33.363  0.00  0.00    +0.000 A 
ATOM   1626  O2  C   B  75      -9.335 -18.413 -34.039  0.00  0.00    +0.000 OA
ATOM   1627  N3  C   B  75      -7.711 -19.841 -33.343  0.00  0.00    +0.000 NA
ATOM   1628  C4  C   B  75      -6.612 -20.034 -32.606  0.00  0.00    +0.000 A 
ATOM   1629  N4  C   B  75      -6.052 -21.247 -32.626  0.00  0.00    +0.000 N 
ATOM   1630  C5  C   B  75      -6.045 -18.997 -31.823  0.00  0.00    +0.000 A 
ATOM   1631  C6  C   B  75      -6.650 -17.800 -31.847  0.00  0.00    +0.000 A 
ATOM   1632  H   C   B  75      -6.450 -21.964 -33.171  0.00  0.00    +0.000 HD
ATOM   1633  H   C   B  75      -5.242 -21.424 -32.095  0.00  0.00    +0.000 HD
ENDBRANCH16231624
BRANCH16221634
ATOM   1634  O2' C   B  75     -10.517 -15.268 -31.962  0.00  0.00    +0.000 OA
ATOM   1635  H   C   B  75     -10.170 -14.436 -32.321  0.00  0.00    +0.000 HD
ENDBRANCH16221634
BRANCH16191636
ATOM   1636  C5' C   B  75      -6.396 -14.094 -30.705  0.00  0.00    +0.000 C 
BRANCH16361637
ATOM   1637  O5' C   B  75      -5.666 -15.279 -30.420  0.00  0.00    +0.000 OA
BRANCH16371638
ATOM   1638  P   C   B  75      -4.190 -15.257 -29.843  0.00  0.00    +0.000 P 
ATOM   1639  OP2 C   B  75      -3.336 -14.531 -30.797  0.00  0.00    +0.000 OA
BRANCH16381640
ATOM   1640  OP1 C   B  75      -3.850 -16.653 -29.459  0.00  0.00    +0.000 OA
ATOM   1641  H   C   B  75      -3.758 -17.195 -30.258  0.00  0.00    +0.000 HD
ENDBRANCH16381640
BRANCH16381642
ATOM   1642  O3' C   B  74      -4.336 -14.385 -28.518  0.00  0.00    +0.000 OA
BRANCH16421645
ATOM   1643  C4' C   B  74      -2.403 -14.148 -27.071  0.00  0.00    +0.000 C 
ATOM   1644  O4' C   B  74      -1.840 -13.030 -26.336  0.00  0.00    +0.000 OA
ATOM   1645  C3' C   B  74      -3.289 -13.511 -28.119  0.00  0.00    +0.000 C 
ATOM   1646  C2' C   B  74      -3.816 -12.270 -27.411  0.00  0.00    +0.000 C 
ATOM   1647  C1' C   B  74      -2.634 -11.884 -26.514  0.00  0.00    +0.000 C 
BRANCH16471648
ATOM   1648  N1  C   B  74      -1.784 -10.807 -27.073  0.00  0.00    +0.000 N 
ATOM   1649  C2  C   B  74      -2.024  -9.492 -26.657  0.00  0.00    +0.000 A 
ATOM   1650  O2  C   B  74      -2.933  -9.270 -25.851  0.00  0.00    +0.000 OA
ATOM   1651  N3  C   B  74      -1.246  -8.490 -27.145  0.00  0.00    +0.000 NA
ATOM   1652  C4  C   B  74      -0.265  -8.763 -28.013  0.00  0.00    +0.000 A 
ATOM   1653  N4  C   B  74       0.471  -7.743 -28.465  0.00  0.00    +0.000 N 
ATOM   1654  C5  C   B  74      -0.007 -10.093 -28.451  0.00  0.00    +0.000 A 
ATOM   1655  C6  C   B  74      -0.780 -11.073 -27.961  0.00  0.00    +0.000 A 
ATOM   1656  H   C   B  74       1.201  -7.908 -29.105  0.00  0.00    +0.000 HD
ATOM   1657  H   C   B  74       0.283  -6.827 -28.158  0.00  0.00    +0.000 HD
ENDBRANCH16471648
BRANCH16461658
ATOM   1658  O2' C   B  74      -4.934 -12.571 -26.592  0.00  0.00    +0.000 OA
ATOM   1659  H   C   B  74      -4.691 -13.258 -25.952  0.00  0.00    +0.000 HD
ENDBRANCH16461658
BRANCH16431660
ATOM   1660  C5' C   B  74      -1.280 -14.998 -27.612  0.00  0.00    +0.000 C 
BRANCH16601661
ATOM   1661  O5' C   B  74      -0.461 -14.233 -28.484  0.00  0.00    +0.000 OA
BRANCH16611662
ATOM   1662  P   C   B  74       0.938 -14.789 -29.005  0.00  0.00    +0.000 P 
ATOM   1663  OP2 C   B  74       1.524 -13.771 -29.914  0.00  0.00    +0.000 OA
BRANCH16621664
ATOM   1664  OP1 C   B  74       0.731 -16.172 -29.484  0.00  0.00    +0.000 OA
ATOM   1665  H   C   B  74       0.202 -16.157 -30.297  0.00  0.00    +0.000 HD
ENDBRANCH16621664
BRANCH16621666
ATOM   1666  O3' U   B  73       1.812 -14.852 -27.666  0.00  0.00    +0.000 OA
BRANCH16661669
ATOM   1667  C4' U   B  73       3.710 -14.048 -26.372  0.00  0.00    +0.000 C 
ATOM   1668  O4' U   B  73       3.918 -12.911 -25.497  0.00  0.00    +0.000 OA
ATOM   1669  C3' U   B  73       2.465 -13.692 -27.159  0.00  0.00    +0.000 C 
ATOM   1670  C2' U   B  73       1.626 -12.945 -26.128  0.00  0.00    +0.000 C 
ATOM   1671  C1' U   B  73       2.707 -12.209 -25.325  0.00  0.00    +0.000 C 
BRANCH16711672
ATOM   1672  N1  U   B  73       2.903 -10.809 -25.754  0.00  0.00    +0.000 N 
ATOM   1673  C2  U   B  73       2.022  -9.859 -25.266  0.00  0.00    +0.000 A 
ATOM   1674  O2  U   B  73       1.101 -10.131 -24.516  0.00  0.00    +0.000 OA
ATOM   1675  N3  U   B  73       2.255  -8.572 -25.690  0.00  0.00    +0.000 N 
ATOM   1676  C4  U   B  73       3.263  -8.143 -26.531  0.00  0.00    +0.000 A 
ATOM   1677  O4  U   B  73       3.343  -6.947 -26.819  0.00  0.00    +0.000 OA
ATOM   1678  C5  U   B  73       4.133  -9.181 -26.993  0.00  0.00    +0.000 A 
ATOM   1679  C6  U   B  73       3.927 -10.446 -26.596  0.00  0.00    +0.000 A 
ATOM   1680  H   U   B  73       1.636  -7.882 -25.358  0.00  0.00    +0.000 HD
ENDBRANCH16711672
BRANCH16701681
ATOM   1681  O2' U   B  73       0.937 -13.833 -25.265  0.00  0.00    +0.000 OA
ATOM   1682  H   U   B  73       1.574 -14.423 -24.833  0.00  0.00    +0.000 HD
ENDBRANCH16701681
BRANCH16671683
ATOM   1683  C5' U   B  73       4.956 -14.292 -27.188  0.00  0.00    +0.000 C 
BRANCH16831684
ATOM   1684  O5' U   B  73       5.338 -13.127 -27.896  0.00  0.00    +0.000 OA
BRANCH16841685
ATOM   1685  P   U   B  73       6.815 -12.969 -28.480  0.00  0.00    +0.000 P 
ATOM   1686  OP1 U   B  73       7.129 -14.171 -29.282  0.00  0.00    +0.000 OA
BRANCH16851687
ATOM   1687  OP2 U   B  73       6.924 -11.619 -29.090  0.00  0.00    +0.000 OA
ATOM   1688  H   U   B  73       6.369 -11.577 -29.884  0.00  0.00    +0.000 HD
ENDBRANCH16851687
BRANCH16851689
ATOM   1689  O3' C   B  72       7.747 -12.999 -27.169  0.00  0.00    +0.000 OA
BRANCH16891692
ATOM   1690  C4' C   B  72       9.221 -11.689 -25.731  0.00  0.00    +0.000 C 
ATOM   1691  O4' C   B  72       9.000 -10.832 -24.585  0.00  0.00    +0.000 OA
ATOM   1692  C3' C   B  72       7.841 -11.856 -26.329  0.00  0.00    +0.000 C 
ATOM   1693  C2' C   B  72       6.969 -11.957 -25.084  0.00  0.00    +0.000 C 
ATOM   1694  C1' C   B  72       7.659 -10.960 -24.147  0.00  0.00    +0.000 C 
BRANCH16941695
ATOM   1695  N1  C   B  72       7.017  -9.627 -24.161  0.00  0.00    +0.000 N 
ATOM   1696  C2  C   B  72       5.853  -9.442 -23.407  0.00  0.00    +0.000 A 
ATOM   1697  O2  C   B  72       5.396 -10.392 -22.755  0.00  0.00    +0.000 OA
ATOM   1698  N3  C   B  72       5.248  -8.227 -23.410  0.00  0.00    +0.000 NA
ATOM   1699  C4  C   B  72       5.765  -7.223 -24.122  0.00  0.00    +0.000 A 
ATOM   1700  N4  C   B  72       5.132  -6.047 -24.092  0.00  0.00    +0.000 N 
ATOM   1701  C5  C   B  72       6.947  -7.386 -24.895  0.00  0.00    +0.000 A 
ATOM   1702  C6  C   B  72       7.536  -8.589 -24.886  0.00  0.00    +0.000 A 
ATOM   1703  H   C   B  72       5.485  -5.285 -24.605  0.00  0.00    +0.000 HD
ATOM   1704  H   C   B  72       4.312  -5.943 -23.557  0.00  0.00    +0.000 HD
ENDBRANCH16941695
BRANCH16931705
ATOM   1705  O2' C   B  72       7.020 -13.248 -24.506  0.00  0.00    +0.000 OA
ATOM   1706  H   C   B  72       7.941 -13.476 -24.304  0.00  0.00    +0.000 HD
ENDBRANCH16931705
BRANCH16901707
ATOM   1707  C5' C   B  72      10.263 -11.089 -26.640  0.00  0.00    +0.000 C 
BRANCH17071708
ATOM   1708  O5' C   B  72       9.860  -9.818 -27.121  0.00  0.00    +0.000 OA
BRANCH17081709
ATOM   1709  P   C   B  72      10.878  -8.895 -27.932  0.00  0.00    +0.000 P 
ATOM   1710  OP1 C   B  72      11.459  -9.701 -29.028  0.00  0.00    +0.000 OA
BRANCH17091711
ATOM   1711  OP2 C   B  72      10.190  -7.613 -28.236  0.00  0.00    +0.000 OA
ATOM   1712  H   C   B  72       9.481  -7.771 -28.879  0.00  0.00    +0.000 HD
ENDBRANCH17091711
BRANCH17091713
ATOM   1713  O3' U   B  71      12.052  -8.615 -26.863  0.00  0.00    +0.000 OA
BRANCH17131716
ATOM   1714  C4' U   B  71      13.124  -7.004 -25.360  0.00  0.00    +0.000 C 
ATOM   1715  O4' U   B  71      12.781  -6.466 -24.055  0.00  0.00    +0.000 OA
ATOM   1716  C3' U   B  71      11.844  -7.670 -25.822  0.00  0.00    +0.000 C 
ATOM   1717  C2' U   B  71      11.335  -8.290 -24.528  0.00  0.00    +0.000 C 
ATOM   1718  C1' U   B  71      11.690  -7.193 -23.517  0.00  0.00    +0.000 C 
BRANCH17181719
ATOM   1719  N1  U   B  71      10.559  -6.266 -23.290  0.00  0.00    +0.000 N 
ATOM   1720  C2  U   B  71       9.594  -6.654 -22.378  0.00  0.00    +0.000 A 
ATOM   1721  O2  U   B  71       9.648  -7.707 -21.762  0.00  0.00    +0.000 OA
ATOM   1722  N3  U   B  71       8.558  -5.764 -22.210  0.00  0.00    +0.000 N 
ATOM   1723  C4  U   B  71       8.393  -4.552 -22.848  0.00  0.00    +0.000 A 
ATOM   1724  O4  U   B  71       7.405  -3.867 -22.591  0.00  0.00    +0.000 OA
ATOM   1725  C5  U   B  71       9.430  -4.222 -23.776  0.00  0.00    +0.000 A 
ATOM   1726  C6  U   B  71      10.452  -5.069 -23.960  0.00  0.00    +0.000 A 
ATOM   1727  H   U   B  71       7.859  -6.020 -21.565  0.00  0.00    +0.000 HD
ENDBRANCH17181719
BRANCH17171728
ATOM   1728  O2' U   B  71      12.033  -9.474 -24.195  0.00  0.00    +0.000 OA
ATOM   1729  H   U   B  71      12.983  -9.285 -24.140  0.00  0.00    +0.000 HD
ENDBRANCH17171728
BRANCH17141730
ATOM   1730  C5' U   B  71      13.661  -5.912 -26.249  0.00  0.00    +0.000 C 
BRANCH17301731
ATOM   1731  O5' U   B  71      12.684  -4.912 -26.492  0.00  0.00    +0.000 OA
BRANCH17311732
ATOM   1732  P   U   B  71      13.076  -3.549 -27.219  0.00  0.00    +0.000 P 
ATOM   1733  OP1 U   B  71      13.818  -3.875 -28.460  0.00  0.00    +0.000 OA
BRANCH17321734
ATOM   1734  OP2 U   B  71      11.861  -2.695 -27.286  0.00  0.00    +0.000 OA
ATOM   1735  H   U   B  71      11.222  -3.090 -27.899  0.00  0.00    +0.000 HD
ENDBRANCH17321734
BRANCH17321736
ATOM   1736  O3' A   B  70      14.124  -2.878 -26.198  0.00  0.00    +0.000 OA
BRANCH17361739
ATOM   1737  C4' A   B  70      14.573  -1.090 -24.583  0.00  0.00    +0.000 C 
ATOM   1738  O4' A   B  70      14.231  -0.904 -23.184  0.00  0.00    +0.000 OA
ATOM   1739  C3' A   B  70      13.652  -2.210 -25.036  0.00  0.00    +0.000 C 
ATOM   1740  C2' A   B  70      13.603  -3.099 -23.802  0.00  0.00    +0.000 C 
ATOM   1741  C1' A   B  70      13.563  -2.048 -22.694  0.00  0.00    +0.000 C 
BRANCH17411742
ATOM   1742  N9  A   B  70      12.183  -1.669 -22.352  0.00  0.00    +0.000 N 
ATOM   1743  C8  A   B  70      11.447  -0.623 -22.852  0.00  0.00    +0.000 A 
ATOM   1744  N7  A   B  70      10.237  -0.546 -22.356  0.00  0.00    +0.000 NA
ATOM   1745  C5  A   B  70      10.168  -1.613 -21.475  0.00  0.00    +0.000 A 
ATOM   1746  C6  A   B  70       9.148  -2.082 -20.630  0.00  0.00    +0.000 A 
ATOM   1747  N6  A   B  70       7.941  -1.504 -20.543  0.00  0.00    +0.000 N 
ATOM   1748  N1  A   B  70       9.405  -3.171 -19.881  0.00  0.00    +0.000 NA
ATOM   1749  C2  A   B  70      10.608  -3.748 -19.978  0.00  0.00    +0.000 A 
ATOM   1750  N3  A   B  70      11.647  -3.400 -20.732  0.00  0.00    +0.000 NA
ATOM   1751  C4  A   B  70      11.360  -2.313 -21.464  0.00  0.00    +0.000 A 
ATOM   1752  H   A   B  70       7.737  -0.707 -21.084  0.00  0.00    +0.000 HD
ATOM   1753  H   A   B  70       7.259  -1.877 -19.938  0.00  0.00    +0.000 HD
ENDBRANCH17411742
BRANCH17401754
ATOM   1754  O2' A   B  70      14.776  -3.879 -23.663  0.00  0.00    +0.000 OA
ATOM   1755  H   A   B  70      15.551  -3.297 -23.645  0.00  0.00    +0.000 HD
ENDBRANCH17401754
BRANCH17371756
ATOM   1756  C5' A   B  70      14.424   0.216 -25.321  0.00  0.00    +0.000 C 
BRANCH17561757
ATOM   1757  O5' A   B  70      13.085   0.694 -25.256  0.00  0.00    +0.000 OA
BRANCH17571758
ATOM   1758  P   A   B  70      12.754   2.235 -25.478  0.00  0.00    +0.000 P 
ATOM   1759  OP1 A   B  70      13.372   2.663 -26.758  0.00  0.00    +0.000 OA
BRANCH17581760
ATOM   1760  OP2 A   B  70      11.298   2.431 -25.260  0.00  0.00    +0.000 OA
ATOM   1761  H   A   B  70      10.803   2.000 -25.975  0.00  0.00    +0.000 HD
ENDBRANCH17581760
BRANCH17581762
ATOM   1762  O3' A   B  69      13.562   2.949 -24.294  0.00  0.00    +0.000 OA
BRANCH17621765
ATOM   1763  C4' A   B  69      13.241   4.343 -22.316  0.00  0.00    +0.000 C 
ATOM   1764  O4' A   B  69      13.090   4.056 -20.903  0.00  0.00    +0.000 OA
ATOM   1765  C3' A   B  69      13.003   3.006 -22.986  0.00  0.00    +0.000 C 
ATOM   1766  C2' A   B  69      13.658   2.036 -22.007  0.00  0.00    +0.000 C 
ATOM   1767  C1' A   B  69      13.306   2.680 -20.665  0.00  0.00    +0.000 C 
BRANCH17671768
ATOM   1768  N9  A   B  69      12.093   2.109 -20.062  0.00  0.00    +0.000 N 
ATOM   1769  C8  A   B  69      10.811   2.591 -20.123  0.00  0.00    +0.000 A 
ATOM   1770  N7  A   B  69       9.939   1.855 -19.477  0.00  0.00    +0.000 NA
ATOM   1771  C5  A   B  69      10.698   0.816 -18.957  0.00  0.00    +0.000 A 
ATOM   1772  C6  A   B  69      10.365  -0.303 -18.170  0.00  0.00    +0.000 A 
ATOM   1773  N6  A   B  69       9.120  -0.570 -17.756  0.00  0.00    +0.000 N 
ATOM   1774  N1  A   B  69      11.361  -1.144 -17.823  0.00  0.00    +0.000 NA
ATOM   1775  C2  A   B  69      12.604  -0.877 -18.239  0.00  0.00    +0.000 A 
ATOM   1776  N3  A   B  69      13.041   0.141 -18.978  0.00  0.00    +0.000 NA
ATOM   1777  C4  A   B  69      12.024   0.960 -19.308  0.00  0.00    +0.000 A 
ATOM   1778  H   A   B  69       8.380   0.032 -18.000  0.00  0.00    +0.000 HD
ATOM   1779  H   A   B  69       8.944  -1.369 -17.208  0.00  0.00    +0.000 HD
ENDBRANCH17671768
BRANCH17661780
ATOM   1780  O2' A   B  69      15.068   2.005 -22.158  0.00  0.00    +0.000 OA
ATOM   1781  H   A   B  69      15.424   2.901 -22.053  0.00  0.00    +0.000 HD
ENDBRANCH17661780
BRANCH17631782
ATOM   1782  C5' A   B  69      12.304   5.452 -22.721  0.00  0.00    +0.000 C 
BRANCH17821783
ATOM   1783  O5' A   B  69      10.947   5.070 -22.538  0.00  0.00    +0.000 OA
BRANCH17831784
ATOM   1784  P   A   B  69       9.781   6.151 -22.610  0.00  0.00    +0.000 P 
ATOM   1785  OP1 A   B  69       9.875   6.839 -23.920  0.00  0.00    +0.000 OA
BRANCH17841786
ATOM   1786  OP2 A   B  69       8.509   5.491 -22.212  0.00  0.00    +0.000 OA
ATOM   1787  H   A   B  69       8.252   4.848 -22.891  0.00  0.00    +0.000 HD
ENDBRANCH17841786
BRANCH17841788
ATOM   1788  O3' A   B  68      10.191   7.200 -21.492  0.00  0.00    +0.000 OA
BRANCH17881791
ATOM   1789  C4' A   B  68       9.601   8.276 -19.376  0.00  0.00    +0.000 C 
ATOM   1790  O4' A   B  68       9.774   7.910 -17.985  0.00  0.00    +0.000 OA
ATOM   1791  C3' A   B  68       9.836   6.978 -20.133  0.00  0.00    +0.000 C 
ATOM   1792  C2' A   B  68      10.935   6.321 -19.311  0.00  0.00    +0.000 C 
ATOM   1793  C1' A   B  68      10.493   6.693 -17.891  0.00  0.00    +0.000 C 
BRANCH17931794
ATOM   1794  N9  A   B  68       9.607   5.671 -17.304  0.00  0.00    +0.000 N 
ATOM   1795  C8  A   B  68       8.248   5.741 -17.136  0.00  0.00    +0.000 A 
ATOM   1796  N7  A   B  68       7.727   4.668 -16.588  0.00  0.00    +0.000 NA
ATOM   1797  C5  A   B  68       8.818   3.833 -16.379  0.00  0.00    +0.000 A 
ATOM   1798  C6  A   B  68       8.938   2.544 -15.829  0.00  0.00    +0.000 A 
ATOM   1799  N6  A   B  68       7.897   1.838 -15.372  0.00  0.00    +0.000 N 
ATOM   1800  N1  A   B  68      10.169   1.998 -15.769  0.00  0.00    +0.000 NA
ATOM   1801  C2  A   B  68      11.209   2.706 -16.233  0.00  0.00    +0.000 A 
ATOM   1802  N3  A   B  68      11.225   3.922 -16.770  0.00  0.00    +0.000 NA
ATOM   1803  C4  A   B  68       9.982   4.438 -16.815  0.00  0.00    +0.000 A 
ATOM   1804  H   A   B  68       6.990   2.219 -15.407  0.00  0.00    +0.000 HD
ATOM   1805  H   A   B  68       8.038   0.937 -15.001  0.00  0.00    +0.000 HD
ENDBRANCH17931794
BRANCH17921806
ATOM   1806  O2' A   B  68      12.204   6.895 -19.574  0.00  0.00    +0.000 OA
ATOM   1807  H   A   B  68      12.166   7.851 -19.414  0.00  0.00    +0.000 HD
ENDBRANCH17921806
BRANCH17891808
ATOM   1808  C5' A   B  68       8.240   8.896 -19.576  0.00  0.00    +0.000 C 
BRANCH18081809
ATOM   1809  O5' A   B  68       7.217   7.962 -19.271  0.00  0.00    +0.000 OA
BRANCH18091810
ATOM   1810  P   A   B  68       5.777   8.451 -18.807  0.00  0.00    +0.000 P 
ATOM   1811  OP1 A   B  68       5.049   8.915 -20.022  0.00  0.00    +0.000 OA
BRANCH18101812
ATOM   1812  OP2 A   B  68       5.174   7.381 -17.974  0.00  0.00    +0.000 OA
ATOM   1813  H   A   B  68       4.978   6.610 -18.530  0.00  0.00    +0.000 HD
ENDBRANCH18101812
BRANCH18101814
ATOM   1814  O3' A   B  67       6.140   9.776 -17.981  0.00  0.00    +0.000 OA
BRANCH18141817
ATOM   1815  C4' A   B  67       5.591   8.711 -15.816  0.00  0.00    +0.000 C 
ATOM   1816  O4' A   B  67       4.567   8.963 -14.828  0.00  0.00    +0.000 OA
ATOM   1817  C3' A   B  67       5.661   9.989 -16.651  0.00  0.00    +0.000 C 
ATOM   1818  C2' A   B  67       4.251  10.540 -16.578  0.00  0.00    +0.000 C 
ATOM   1819  C1' A   B  67       3.812  10.103 -15.180  0.00  0.00    +0.000 C 
BRANCH18181820
ATOM   1820  O2' A   B  67       3.386   9.977 -17.537  0.00  0.00    +0.000 OA
ATOM   1821  H   A   B  67       3.363   9.014 -17.426  0.00  0.00    +0.000 HD
ENDBRANCH18181820
BRANCH18151822
ATOM   1822  C5' A   B  67       6.882   8.337 -15.137  0.00  0.00    +0.000 C 
BRANCH18221823
ATOM   1823  O5' A   B  67       6.687   7.527 -14.001  0.00  0.00    +0.000 OA
BRANCH18231824
ATOM   1824  P   A   B  67       7.867   6.620 -13.415  0.00  0.00    +0.000 P 
ATOM   1825  OP2 A   B  67       8.715   6.201 -14.548  0.00  0.00    +0.000 OA
BRANCH18241826
ATOM   1826  OP1 A   B  67       7.275   5.593 -12.518  0.00  0.00    +0.000 OA
ATOM   1827  H   A   B  67       6.742   4.975 -13.042  0.00  0.00    +0.000 HD
ENDBRANCH18241826
BRANCH18241828
ATOM   1828  O3' A   B  66       8.758   7.655 -12.543  0.00  0.00    +0.000 OA
BRANCH18281831
ATOM   1829  C4' A   B  66       8.446   9.735 -11.311  0.00  0.00    +0.000 C 
ATOM   1830  O4' A   B  66       8.512  10.080  -9.907  0.00  0.00    +0.000 OA
ATOM   1831  C3' A   B  66       8.314   8.225 -11.322  0.00  0.00    +0.000 C 
ATOM   1832  C2' A   B  66       9.174   7.813 -10.131  0.00  0.00    +0.000 C 
ATOM   1833  C1' A   B  66       8.926   8.963  -9.150  0.00  0.00    +0.000 C 
BRANCH18331834
ATOM   1834  N9  A   B  66       7.887   8.653  -8.157  0.00  0.00    +0.000 N 
ATOM   1835  C8  A   B  66       6.538   8.879  -8.244  0.00  0.00    +0.000 A 
ATOM   1836  N7  A   B  66       5.867   8.494  -7.183  0.00  0.00    +0.000 NA
ATOM   1837  C5  A   B  66       6.842   7.975  -6.338  0.00  0.00    +0.000 A 
ATOM   1838  C6  A   B  66       6.781   7.401  -5.051  0.00  0.00    +0.000 A 
ATOM   1839  N6  A   B  66       5.643   7.242  -4.358  0.00  0.00    +0.000 N 
ATOM   1840  N1  A   B  66       7.943   6.991  -4.494  0.00  0.00    +0.000 NA
ATOM   1841  C2  A   B  66       9.080   7.148  -5.186  0.00  0.00    +0.000 A 
ATOM   1842  N3  A   B  66       9.264   7.672  -6.398  0.00  0.00    +0.000 NA
ATOM   1843  C4  A   B  66       8.090   8.070  -6.925  0.00  0.00    +0.000 A 
ATOM   1844  H   A   B  66       4.786   7.534  -4.745  0.00  0.00    +0.000 HD
ATOM   1845  H   A   B  66       5.665   6.834  -3.462  0.00  0.00    +0.000 HD
ENDBRANCH18331834
BRANCH18321846
ATOM   1846  O2' A   B  66      10.550   7.775 -10.465  0.00  0.00    +0.000 OA
ATOM   1847  H   A   B  66      10.824   8.640 -10.807  0.00  0.00    +0.000 HD
ENDBRANCH18321846
BRANCH18291848
ATOM   1848  C5' A   B  66       7.317  10.497 -11.966  0.00  0.00    +0.000 C 
BRANCH18481849
ATOM   1849  O5' A   B  66       6.076  10.173 -11.364  0.00  0.00    +0.000 OA
ATOM   1850  H   A   B  66       5.366  10.672 -11.798  0.00  0.00    +0.000 HD
ENDBRANCH18481849
ENDBRANCH18291848
ENDBRANCH18281831
ENDBRANCH18241828
ENDBRANCH18231824
ENDBRANCH18221823
ENDBRANCH18151822
ENDBRANCH18141817
ENDBRANCH18101814
ENDBRANCH18091810
ENDBRANCH18081809
ENDBRANCH17891808
ENDBRANCH17881791
ENDBRANCH17841788
ENDBRANCH17831784
ENDBRANCH17821783
ENDBRANCH17631782
ENDBRANCH17621765
ENDBRANCH17581762
ENDBRANCH17571758
ENDBRANCH17561757
ENDBRANCH17371756
ENDBRANCH17361739
ENDBRANCH17321736
ENDBRANCH17311732
ENDBRANCH17301731
ENDBRANCH17141730
ENDBRANCH17131716
ENDBRANCH17091713
ENDBRANCH17081709
ENDBRANCH17071708
ENDBRANCH16901707
ENDBRANCH16891692
ENDBRANCH16851689
ENDBRANCH16841685
ENDBRANCH16831684
ENDBRANCH16671683
ENDBRANCH16661669
ENDBRANCH16621666
ENDBRANCH16611662
ENDBRANCH16601661
ENDBRANCH16431660
ENDBRANCH16421645
ENDBRANCH16381642
ENDBRANCH16371638
ENDBRANCH16361637
ENDBRANCH16191636
ENDBRANCH16181621
ENDBRANCH16141618
ENDBRANCH16131614
ENDBRANCH16121613
ENDBRANCH16031612
ENDBRANCH15941607
BRANCH15981851
ATOM   1851  N6  A   B  76     -11.510  -8.175 -20.494  0.00  0.00    +0.000 NA
ATOM   1852  H   A   B  76     -11.427  -7.375 -19.867  0.00  0.00    +0.000 HD
ATOM   1853  H   A   B  76     -11.643  -9.025 -19.946  0.00  0.00    +0.000 HD
ENDBRANCH15981851
ENDBRANCH15931600
ENDBRANCH15651593
ENDBRANCH15641565
ENDBRANCH15631564
ENDBRANCH15471563
ENDBRANCH15461549
ENDBRANCH15421546
ENDBRANCH15411542
ENDBRANCH15401541
ENDBRANCH15211540
ENDBRANCH15201523
ENDBRANCH15161520
ENDBRANCH15151516
ENDBRANCH15141515
ENDBRANCH14951514
ENDBRANCH14941497
ENDBRANCH14901494
ENDBRANCH14891490
ENDBRANCH14881489
ENDBRANCH14721488
ENDBRANCH14711474
ENDBRANCH14671471
ENDBRANCH14661467
ENDBRANCH14651466
ENDBRANCH14461465
ENDBRANCH14451448
ENDBRANCH14411445
ENDBRANCH14401441
ENDBRANCH14391440
ENDBRANCH14221439
ENDBRANCH14211424
ENDBRANCH14171421
ENDBRANCH14161417
ENDBRANCH14151416
ENDBRANCH13991415
ENDBRANCH13981401
ENDBRANCH13941398
ENDBRANCH13931394
ENDBRANCH13921393
ENDBRANCH13731392
ENDBRANCH13721375
ENDBRANCH13681372
ENDBRANCH13671368
ENDBRANCH13661367
ENDBRANCH13501366
ENDBRANCH13491352
ENDBRANCH13451349
ENDBRANCH13441345
ENDBRANCH13431344
ENDBRANCH13271343
ENDBRANCH13261329
ENDBRANCH13221326
ENDBRANCH13211322
ENDBRANCH13201321
ENDBRANCH13041320
ENDBRANCH13031306
ENDBRANCH12991303
ENDBRANCH12981299
ENDBRANCH12971298
ENDBRANCH12801297
ENDBRANCH12791282
ENDBRANCH12751279
ENDBRANCH12741275
ENDBRANCH12731274
ENDBRANCH12541273
ENDBRANCH12531256
ENDBRANCH12491253
ENDBRANCH12481249
ENDBRANCH12471248
ENDBRANCH12311247
ENDBRANCH12301233
ENDBRANCH12261230
ENDBRANCH12251226
ENDBRANCH12241225
ENDBRANCH12071224
ENDBRANCH12061209
ENDBRANCH12021206
ENDBRANCH12011202
ENDBRANCH12001201
ENDBRANCH11831200
ENDBRANCH11821185
ENDBRANCH11781182
ENDBRANCH11771178
ENDBRANCH11761177
ENDBRANCH11551176
ENDBRANCH11541157
ENDBRANCH11501154
ENDBRANCH11491150
ENDBRANCH11481149
ENDBRANCH11291148
ENDBRANCH11281131
ENDBRANCH11241128
ENDBRANCH11231124
ENDBRANCH11221123
ENDBRANCH11031122
ENDBRANCH11021105
ENDBRANCH10981102
ENDBRANCH10971098
ENDBRANCH10961097
ENDBRANCH10771096
ENDBRANCH10761079
ENDBRANCH10721076
ENDBRANCH10711072
ENDBRANCH10701071
ENDBRANCH10531070
ENDBRANCH10521055
ENDBRANCH10481052
ENDBRANCH10471048
ENDBRANCH10461047
ENDBRANCH10301046
ENDBRANCH10291032
ENDBRANCH10251029
ENDBRANCH10241025
ENDBRANCH10231024
ENDBRANCH10071023
ENDBRANCH10061009
ENDBRANCH10021006
ENDBRANCH10011002
ENDBRANCH10001001
ENDBRANCH 9841000
ENDBRANCH 983 986
ENDBRANCH 979 983
ENDBRANCH 978 979
ENDBRANCH 977 978
ENDBRANCH 961 977
ENDBRANCH 960 963
ENDBRANCH 956 960
ENDBRANCH 955 956
ENDBRANCH 954 955
ENDBRANCH 938 954
ENDBRANCH 937 940
ENDBRANCH 933 937
ENDBRANCH 932 933
ENDBRANCH 931 932
ENDBRANCH   1 931
TORSDOF 623
REMARK  Name = /storage/kiran-stuff/aaRS/phase2/energy_scoring/vina_182jobs/shallow_domain_pro_PRO/ligand.h.pdb
REMARK  627 active torsions:
REMARK  status: ('A' for Active; 'I' for Inactive)
REMARK    1  A    between atoms: OP3_1  and  P_2
REMARK    2  A    between atoms: P_2  and  OP2_4
REMARK    3  A    between atoms: P_2  and  O5'_5
REMARK    4  A    between atoms: O5'_5  and  C5'_6
REMARK    5  A    between atoms: C5'_6  and  C4'_7
REMARK    6  A    between atoms: C3'_9  and  O3'_10
REMARK    7  A    between atoms: O3'_10  and  P_22
REMARK    8  A    between atoms: C2'_11  and  O2'_12
REMARK    9  A    between atoms: C1'_13  and  N1_14
REMARK   10  A    between atoms: P_22  and  OP1_23
REMARK   11  A    between atoms: P_22  and  O5'_25
REMARK   12  A    between atoms: OP1_23  and  C2_1587
REMARK   13  A    between atoms: O5'_25  and  C5'_26
REMARK   14  A    between atoms: C5'_26  and  C4'_27
REMARK   15  A    between atoms: C3'_29  and  O3'_30
REMARK   16  A    between atoms: O3'_30  and  P_42
REMARK   17  A    between atoms: C2'_31  and  O2'_32
REMARK   18  A    between atoms: C1'_33  and  N1_34
REMARK   19  A    between atoms: P_42  and  OP2_44
REMARK   20  A    between atoms: P_42  and  O5'_45
REMARK   21  A    between atoms: O5'_45  and  C5'_46
REMARK   22  A    between atoms: C5'_46  and  C4'_47
REMARK   23  A    between atoms: C3'_49  and  O3'_50
REMARK   24  A    between atoms: O3'_50  and  P_64
REMARK   25  A    between atoms: C2'_51  and  O2'_52
REMARK   26  A    between atoms: C1'_53  and  N9_54
REMARK   27  A    between atoms: C6_58  and  N6_59
REMARK   28  A    between atoms: P_64  and  OP1_65
REMARK   29  A    between atoms: P_64  and  O5'_67
REMARK   30  A    between atoms: O5'_67  and  C5'_68
REMARK   31  A    between atoms: C5'_68  and  C4'_69
REMARK   32  A    between atoms: C3'_71  and  O3'_72
REMARK   33  A    between atoms: O3'_72  and  P_86
REMARK   34  A    between atoms: C2'_73  and  O2'_74
REMARK   35  A    between atoms: C1'_75  and  N9_76
REMARK   36  A    between atoms: C6_80  and  N6_81
REMARK   37  A    between atoms: P_86  and  OP1_87
REMARK   38  A    between atoms: P_86  and  O5'_89
REMARK   39  A    between atoms: O5'_89  and  C5'_90
REMARK   40  A    between atoms: C5'_90  and  C4'_91
REMARK   41  A    between atoms: C3'_93  and  O3'_94
REMARK   42  A    between atoms: O3'_94  and  P_106
REMARK   43  A    between atoms: C2'_95  and  O2'_96
REMARK   44  A    between atoms: C1'_97  and  N1_98
REMARK   45  A    between atoms: P_106  and  OP1_107
REMARK   46  A    between atoms: P_106  and  O5'_109
REMARK   47  A    between atoms: O5'_109  and  C5'_110
REMARK   48  A    between atoms: C5'_110  and  C4'_111
REMARK   49  A    between atoms: C3'_113  and  O3'_114
REMARK   50  A    between atoms: O3'_114  and  P_128
REMARK   51  A    between atoms: C2'_115  and  O2'_116
REMARK   52  A    between atoms: C1'_117  and  N9_118
REMARK   53  A    between atoms: P_128  and  OP2_130
REMARK   54  A    between atoms: P_128  and  O5'_131
REMARK   55  A    between atoms: O5'_131  and  C5'_132
REMARK   56  A    between atoms: C5'_132  and  C4'_133
REMARK   57  A    between atoms: C3'_135  and  O3'_136
REMARK   58  A    between atoms: O3'_136  and  P_148
REMARK   59  A    between atoms: C2'_137  and  O2'_138
REMARK   60  A    between atoms: C1'_139  and  N1_140
REMARK   61  A    between atoms: P_148  and  OP2_150
REMARK   62  A    between atoms: P_148  and  O5'_151
REMARK   63  A    between atoms: O5'_151  and  C5'_152
REMARK   64  A    between atoms: C5'_152  and  C4'_153
REMARK   65  A    between atoms: C3'_155  and  O3'_156
REMARK   66  A    between atoms: O3'_156  and  P_168
REMARK   67  A    between atoms: C2'_157  and  O2'_158
REMARK   68  A    between atoms: C1'_159  and  N1_160
REMARK   69  A    between atoms: P_168  and  OP1_169
REMARK   70  A    between atoms: P_168  and  O5'_171
REMARK   71  A    between atoms: O5'_171  and  C5'_172
REMARK   72  A    between atoms: C5'_172  and  C4'_173
REMARK   73  A    between atoms: C3'_175  and  O3'_176
REMARK   74  A    between atoms: O3'_176  and  P_190
REMARK   75  A    between atoms: C2'_177  and  O2'_178
REMARK   76  A    between atoms: C1'_179  and  N9_180
REMARK   77  A    between atoms: C6_184  and  N6_185
REMARK   78  A    between atoms: P_190  and  OP1_191
REMARK   79  A    between atoms: P_190  and  O5'_193
REMARK   80  A    between atoms: O5'_193  and  C5'_194
REMARK   81  A    between atoms: C5'_194  and  C4'_195
REMARK   82  A    between atoms: C3'_197  and  O3'_198
REMARK   83  A    between atoms: O3'_198  and  P_210
REMARK   84  A    between atoms: C2'_199  and  O2'_200
REMARK   85  A    between atoms: C1'_201  and  N1_202
REMARK   86  A    between atoms: P_210  and  OP2_212
REMARK   87  A    between atoms: P_210  and  O5'_213
REMARK   88  A    between atoms: O5'_213  and  C5'_214
REMARK   89  A    between atoms: C5'_214  and  C4'_215
REMARK   90  A    between atoms: C3'_217  and  O3'_218
REMARK   91  A    between atoms: O3'_218  and  P_230
REMARK   92  A    between atoms: C2'_219  and  O2'_220
REMARK   93  A    between atoms: C1'_221  and  N1_222
REMARK   94  A    between atoms: P_230  and  OP2_232
REMARK   95  A    between atoms: P_230  and  O5'_233
REMARK   96  A    between atoms: O5'_233  and  C5'_234
REMARK   97  A    between atoms: C5'_234  and  C4'_235
REMARK   98  A    between atoms: C3'_237  and  O3'_238
REMARK   99  A    between atoms: O3'_238  and  P_250
REMARK  100  A    between atoms: C2'_239  and  O2'_240
REMARK  101  A    between atoms: C1'_241  and  N1_242
REMARK  102  A    between atoms: P_250  and  OP1_251
REMARK  103  A    between atoms: P_250  and  O5'_253
REMARK  104  A    between atoms: O5'_253  and  C5'_254
REMARK  105  A    between atoms: C5'_254  and  C4'_255
REMARK  106  A    between atoms: C3'_257  and  O3'_258
REMARK  107  A    between atoms: O3'_258  and  P_270
REMARK  108  A    between atoms: C2'_259  and  O2'_260
REMARK  109  A    between atoms: C1'_261  and  N1_262
REMARK  110  A    between atoms: P_270  and  OP1_271
REMARK  111  A    between atoms: P_270  and  O5'_273
REMARK  112  A    between atoms: O5'_273  and  C5'_274
REMARK  113  A    between atoms: C5'_274  and  C4'_275
REMARK  114  A    between atoms: C3'_277  and  O3'_278
REMARK  115  A    between atoms: O3'_278  and  P_292
REMARK  116  A    between atoms: C2'_279  and  O2'_280
REMARK  117  A    between atoms: C1'_281  and  N9_282
REMARK  118  A    between atoms: C6_286  and  N6_287
REMARK  119  A    between atoms: P_292  and  OP1_293
REMARK  120  A    between atoms: P_292  and  O5'_295
REMARK  121  A    between atoms: O5'_295  and  C5'_296
REMARK  122  A    between atoms: C5'_296  and  C4'_297
REMARK  123  A    between atoms: C3'_299  and  O3'_300
REMARK  124  A    between atoms: O3'_300  and  P_312
REMARK  125  A    between atoms: C2'_301  and  O2'_302
REMARK  126  A    between atoms: C1'_303  and  N1_304
REMARK  127  A    between atoms: P_312  and  OP1_313
REMARK  128  A    between atoms: P_312  and  O5'_315
REMARK  129  A    between atoms: O5'_315  and  C5'_316
REMARK  130  A    between atoms: C5'_316  and  C4'_317
REMARK  131  A    between atoms: C3'_319  and  O3'_320
REMARK  132  A    between atoms: O3'_320  and  P_332
REMARK  133  A    between atoms: C2'_321  and  O2'_322
REMARK  134  A    between atoms: C1'_323  and  N1_324
REMARK  135  A    between atoms: P_332  and  OP2_334
REMARK  136  A    between atoms: P_332  and  O5'_335
REMARK  137  A    between atoms: O5'_335  and  C5'_336
REMARK  138  A    between atoms: C5'_336  and  C4'_337
REMARK  139  A    between atoms: C3'_339  and  O3'_340
REMARK  140  A    between atoms: O3'_340  and  P_352
REMARK  141  A    between atoms: C2'_341  and  O2'_342
REMARK  142  A    between atoms: C1'_343  and  N1_344
REMARK  143  A    between atoms: P_352  and  OP1_353
REMARK  144  A    between atoms: P_352  and  O5'_355
REMARK  145  A    between atoms: O5'_355  and  C5'_356
REMARK  146  A    between atoms: C5'_356  and  C4'_357
REMARK  147  A    between atoms: C3'_359  and  O3'_360
REMARK  148  A    between atoms: O3'_360  and  P_375
REMARK  149  A    between atoms: C2'_361  and  O2'_362
REMARK  150  A    between atoms: C1'_363  and  N9_364
REMARK  151  A    between atoms: P_375  and  OP1_376
REMARK  152  A    between atoms: P_375  and  O5'_378
REMARK  153  A    between atoms: O5'_378  and  C5'_379
REMARK  154  A    between atoms: C5'_379  and  C4'_380
REMARK  155  A    between atoms: C3'_382  and  O3'_383
REMARK  156  A    between atoms: O3'_383  and  P_397
REMARK  157  A    between atoms: C2'_384  and  O2'_385
REMARK  158  A    between atoms: C1'_386  and  N9_387
REMARK  159  A    between atoms: C6_391  and  N6_392
REMARK  160  A    between atoms: P_397  and  OP1_398
REMARK  161  A    between atoms: P_397  and  O5'_400
REMARK  162  A    between atoms: O5'_400  and  C5'_401
REMARK  163  A    between atoms: C5'_401  and  C4'_402
REMARK  164  A    between atoms: C3'_404  and  O3'_405
REMARK  165  A    between atoms: O3'_405  and  P_419
REMARK  166  A    between atoms: C2'_406  and  O2'_407
REMARK  167  A    between atoms: C1'_408  and  N9_409
REMARK  168  A    between atoms: C6_413  and  N6_414
REMARK  169  A    between atoms: P_419  and  OP1_420
REMARK  170  A    between atoms: P_419  and  O5'_422
REMARK  171  A    between atoms: O5'_422  and  C5'_423
REMARK  172  A    between atoms: C5'_423  and  C4'_424
REMARK  173  A    between atoms: C3'_426  and  O3'_427
REMARK  174  A    between atoms: O3'_427  and  P_441
REMARK  175  A    between atoms: C2'_428  and  O2'_429
REMARK  176  A    between atoms: C1'_430  and  N9_431
REMARK  177  A    between atoms: C6_435  and  N6_436
REMARK  178  A    between atoms: P_441  and  OP1_442
REMARK  179  A    between atoms: P_441  and  O5'_444
REMARK  180  A    between atoms: O5'_444  and  C5'_445
REMARK  181  A    between atoms: C5'_445  and  C4'_446
REMARK  182  A    between atoms: C3'_448  and  O3'_449
REMARK  183  A    between atoms: O3'_449  and  P_461
REMARK  184  A    between atoms: C2'_450  and  O2'_451
REMARK  185  A    between atoms: C1'_452  and  N1_453
REMARK  186  A    between atoms: P_461  and  OP2_463
REMARK  187  A    between atoms: P_461  and  O5'_464
REMARK  188  A    between atoms: O5'_464  and  C5'_465
REMARK  189  A    between atoms: C5'_465  and  C4'_466
REMARK  190  A    between atoms: C3'_468  and  O3'_469
REMARK  191  A    between atoms: O3'_469  and  P_481
REMARK  192  A    between atoms: C2'_470  and  O2'_471
REMARK  193  A    between atoms: C1'_472  and  N1_473
REMARK  194  A    between atoms: P_481  and  OP2_483
REMARK  195  A    between atoms: P_481  and  O5'_484
REMARK  196  A    between atoms: O5'_484  and  C5'_485
REMARK  197  A    between atoms: C5'_485  and  C4'_486
REMARK  198  A    between atoms: C3'_488  and  O3'_489
REMARK  199  A    between atoms: O3'_489  and  P_501
REMARK  200  A    between atoms: C2'_490  and  O2'_491
REMARK  201  A    between atoms: C1'_492  and  N1_493
REMARK  202  A    between atoms: P_501  and  OP2_503
REMARK  203  A    between atoms: P_501  and  O5'_504
REMARK  204  A    between atoms: O5'_504  and  C5'_505
REMARK  205  A    between atoms: C5'_505  and  C4'_506
REMARK  206  A    between atoms: C3'_508  and  O3'_509
REMARK  207  A    between atoms: O3'_509  and  P_521
REMARK  208  A    between atoms: C2'_510  and  O2'_511
REMARK  209  A    between atoms: C1'_512  and  N1_513
REMARK  210  A    between atoms: P_521  and  OP2_523
REMARK  211  A    between atoms: P_521  and  O5'_524
REMARK  212  A    between atoms: O5'_524  and  C5'_525
REMARK  213  A    between atoms: C5'_525  and  C4'_526
REMARK  214  A    between atoms: C3'_528  and  O3'_529
REMARK  215  A    between atoms: O3'_529  and  P_541
REMARK  216  A    between atoms: C2'_530  and  O2'_531
REMARK  217  A    between atoms: C1'_532  and  N1_533
REMARK  218  A    between atoms: P_541  and  OP1_542
REMARK  219  A    between atoms: P_541  and  O5'_544
REMARK  220  A    between atoms: O5'_544  and  C5'_545
REMARK  221  A    between atoms: C5'_545  and  C4'_546
REMARK  222  A    between atoms: C3'_548  and  O3'_549
REMARK  223  A    between atoms: O3'_549  and  P_561
REMARK  224  A    between atoms: C2'_550  and  O2'_551
REMARK  225  A    between atoms: C1'_552  and  N1_553
REMARK  226  A    between atoms: P_561  and  OP1_562
REMARK  227  A    between atoms: P_561  and  O5'_564
REMARK  228  A    between atoms: O5'_564  and  C5'_565
REMARK  229  A    between atoms: C5'_565  and  C4'_566
REMARK  230  A    between atoms: C3'_568  and  O3'_569
REMARK  231  A    between atoms: O3'_569  and  P_581
REMARK  232  A    between atoms: C2'_570  and  O2'_571
REMARK  233  A    between atoms: C1'_572  and  N1_573
REMARK  234  A    between atoms: P_581  and  OP1_582
REMARK  235  A    between atoms: P_581  and  O5'_584
REMARK  236  A    between atoms: O5'_584  and  C5'_585
REMARK  237  A    between atoms: C5'_585  and  C4'_586
REMARK  238  A    between atoms: C3'_588  and  O3'_589
REMARK  239  A    between atoms: O3'_589  and  P_603
REMARK  240  A    between atoms: C2'_590  and  O2'_591
REMARK  241  A    between atoms: C1'_592  and  N9_593
REMARK  242  A    between atoms: C6_597  and  N6_598
REMARK  243  A    between atoms: P_603  and  OP1_604
REMARK  244  A    between atoms: P_603  and  O5'_606
REMARK  245  A    between atoms: O5'_606  and  C5'_607
REMARK  246  A    between atoms: C5'_607  and  C4'_608
REMARK  247  A    between atoms: C3'_610  and  O3'_611
REMARK  248  A    between atoms: O3'_611  and  P_625
REMARK  249  A    between atoms: C2'_612  and  O2'_613
REMARK  250  A    between atoms: C1'_614  and  N9_615
REMARK  251  A    between atoms: C6_619  and  N6_620
REMARK  252  A    between atoms: P_625  and  OP1_626
REMARK  253  A    between atoms: P_625  and  O5'_628
REMARK  254  A    between atoms: O5'_628  and  C5'_629
REMARK  255  A    between atoms: C5'_629  and  C4'_630
REMARK  256  A    between atoms: C3'_632  and  O3'_633
REMARK  257  A    between atoms: O3'_633  and  P_647
REMARK  258  A    between atoms: C2'_634  and  O2'_635
REMARK  259  A    between atoms: C1'_636  and  N9_637
REMARK  260  A    between atoms: C6_641  and  N6_642
REMARK  261  A    between atoms: P_647  and  OP1_648
REMARK  262  A    between atoms: P_647  and  O5'_650
REMARK  263  A    between atoms: O5'_650  and  C5'_651
REMARK  264  A    between atoms: C5'_651  and  C4'_652
REMARK  265  A    between atoms: C3'_654  and  O3'_655
REMARK  266  A    between atoms: O3'_655  and  P_669
REMARK  267  A    between atoms: C2'_656  and  O2'_657
REMARK  268  A    between atoms: C1'_658  and  N9_659
REMARK  269  A    between atoms: C6_663  and  N6_664
REMARK  270  A    between atoms: P_669  and  OP2_671
REMARK  271  A    between atoms: P_669  and  O5'_672
REMARK  272  A    between atoms: O5'_672  and  C5'_673
REMARK  273  A    between atoms: C5'_673  and  C4'_674
REMARK  274  A    between atoms: C3'_676  and  O3'_677
REMARK  275  A    between atoms: O3'_677  and  P_689
REMARK  276  A    between atoms: C2'_678  and  O2'_679
REMARK  277  A    between atoms: C1'_680  and  N1_681
REMARK  278  A    between atoms: P_689  and  OP2_691
REMARK  279  A    between atoms: P_689  and  O5'_692
REMARK  280  A    between atoms: O5'_692  and  C5'_693
REMARK  281  A    between atoms: C5'_693  and  C4'_694
REMARK  282  A    between atoms: C3'_696  and  O3'_697
REMARK  283  A    between atoms: O3'_697  and  P_711
REMARK  284  A    between atoms: C2'_698  and  O2'_699
REMARK  285  A    between atoms: C1'_700  and  N9_701
REMARK  286  A    between atoms: P_711  and  OP2_713
REMARK  287  A    between atoms: P_711  and  O5'_714
REMARK  288  A    between atoms: O5'_714  and  C5'_715
REMARK  289  A    between atoms: C5'_715  and  C4'_716
REMARK  290  A    between atoms: C3'_718  and  O3'_719
REMARK  291  A    between atoms: O3'_719  and  P_733
REMARK  292  A    between atoms: C2'_720  and  O2'_721
REMARK  293  A    between atoms: C1'_722  and  N9_723
REMARK  294  A    between atoms: P_733  and  OP2_735
REMARK  295  A    between atoms: P_733  and  O5'_736
REMARK  296  A    between atoms: O5'_736  and  C5'_737
REMARK  297  A    between atoms: C5'_737  and  C4'_738
REMARK  298  A    between atoms: C3'_740  and  O3'_741
REMARK  299  A    between atoms: O3'_741  and  P_753
REMARK  300  A    between atoms: C2'_742  and  O2'_743
REMARK  301  A    between atoms: C1'_744  and  N1_745
REMARK  302  A    between atoms: P_753  and  OP2_755
REMARK  303  A    between atoms: P_753  and  O5'_756
REMARK  304  A    between atoms: O5'_756  and  C5'_757
REMARK  305  A    between atoms: C5'_757  and  C4'_758
REMARK  306  A    between atoms: C3'_760  and  O3'_761
REMARK  307  A    between atoms: O3'_761  and  P_775
REMARK  308  A    between atoms: C2'_762  and  O2'_763
REMARK  309  A    between atoms: C1'_764  and  N9_765
REMARK  310  A    between atoms: P_775  and  OP1_776
REMARK  311  A    between atoms: P_775  and  O5'_778
REMARK  312  A    between atoms: O5'_778  and  C5'_779
REMARK  313  A    between atoms: C5'_779  and  C4'_780
REMARK  314  A    between atoms: C3'_782  and  O3'_783
REMARK  315  A    between atoms: O3'_783  and  P_795
REMARK  316  A    between atoms: C2'_784  and  O2'_785
REMARK  317  A    between atoms: C1'_786  and  N1_787
REMARK  318  A    between atoms: P_795  and  OP1_796
REMARK  319  A    between atoms: P_795  and  O5'_798
REMARK  320  A    between atoms: O5'_798  and  C5'_799
REMARK  321  A    between atoms: C5'_799  and  C4'_800
REMARK  322  A    between atoms: C3'_802  and  O3'_803
REMARK  323  A    between atoms: O3'_803  and  P_815
REMARK  324  A    between atoms: C2'_804  and  O2'_805
REMARK  325  A    between atoms: C1'_806  and  N1_807
REMARK  326  A    between atoms: P_815  and  OP1_816
REMARK  327  A    between atoms: P_815  and  O5'_818
REMARK  328  A    between atoms: O5'_818  and  C5'_819
REMARK  329  A    between atoms: C5'_819  and  C4'_820
REMARK  330  A    between atoms: C3'_822  and  O3'_823
REMARK  331  A    between atoms: O3'_823  and  P_835
REMARK  332  A    between atoms: C2'_824  and  O2'_825
REMARK  333  A    between atoms: C1'_826  and  N1_827
REMARK  334  A    between atoms: P_835  and  OP2_837
REMARK  335  A    between atoms: P_835  and  O5'_838
REMARK  336  A    between atoms: O5'_838  and  C5'_839
REMARK  337  A    between atoms: C5'_839  and  C4'_840
REMARK  338  A    between atoms: C3'_842  and  O3'_843
REMARK  339  A    between atoms: O3'_843  and  P_855
REMARK  340  A    between atoms: C2'_844  and  O2'_845
REMARK  341  A    between atoms: C1'_846  and  N1_847
REMARK  342  A    between atoms: P_855  and  OP2_857
REMARK  343  A    between atoms: P_855  and  O5'_858
REMARK  344  A    between atoms: O5'_858  and  C5'_859
REMARK  345  A    between atoms: C5'_859  and  C4'_860
REMARK  346  A    between atoms: C3'_862  and  O3'_863
REMARK  347  A    between atoms: O3'_863  and  P_875
REMARK  348  A    between atoms: C2'_864  and  O2'_865
REMARK  349  A    between atoms: C1'_866  and  N1_867
REMARK  350  A    between atoms: P_875  and  OP1_876
REMARK  351  A    between atoms: P_875  and  O5'_878
REMARK  352  A    between atoms: O5'_878  and  C5'_879
REMARK  353  A    between atoms: C5'_879  and  C4'_880
REMARK  354  A    between atoms: C3'_882  and  O3'_883
REMARK  355  A    between atoms: O3'_883  and  P_897
REMARK  356  A    between atoms: C2'_884  and  O2'_885
REMARK  357  A    between atoms: C1'_886  and  N9_887
REMARK  358  A    between atoms: C6_891  and  N6_892
REMARK  359  A    between atoms: P_897  and  OP1_898
REMARK  360  A    between atoms: P_897  and  O5'_900
REMARK  361  A    between atoms: O5'_900  and  C5'_901
REMARK  362  A    between atoms: C5'_901  and  C4'_902
REMARK  363  A    between atoms: C3'_904  and  O3'_905
REMARK  364  A    between atoms: O3'_905  and  P_917
REMARK  365  A    between atoms: C2'_906  and  O2'_907
REMARK  366  A    between atoms: C1'_908  and  N1_909
REMARK  367  A    between atoms: P_917  and  OP1_918
REMARK  368  A    between atoms: P_917  and  O5'_920
REMARK  369  A    between atoms: O5'_920  and  C5'_921
REMARK  370  A    between atoms: C5'_921  and  C4'_922
REMARK  371  A    between atoms: C3'_924  and  O3'_925
REMARK  372  A    between atoms: O3'_925  and  P_937
REMARK  373  A    between atoms: C2'_926  and  O2'_927
REMARK  374  A    between atoms: C1'_928  and  N1_929
REMARK  375  A    between atoms: P_937  and  OP2_939
REMARK  376  A    between atoms: P_937  and  O5'_940
REMARK  377  A    between atoms: O5'_940  and  C5'_941
REMARK  378  A    between atoms: C5'_941  and  C4'_942
REMARK  379  A    between atoms: C3'_944  and  O3'_945
REMARK  380  A    between atoms: O3'_945  and  P_957
REMARK  381  A    between atoms: C2'_946  and  O2'_947
REMARK  382  A    between atoms: C1'_948  and  N1_949
REMARK  383  A    between atoms: P_957  and  OP2_959
REMARK  384  A    between atoms: P_957  and  O5'_960
REMARK  385  A    between atoms: O5'_960  and  C5'_961
REMARK  386  A    between atoms: C5'_961  and  C4'_962
REMARK  387  A    between atoms: C3'_964  and  O3'_965
REMARK  388  A    between atoms: O3'_965  and  P_977
REMARK  389  A    between atoms: C2'_966  and  O2'_967
REMARK  390  A    between atoms: C1'_968  and  N1_969
REMARK  391  A    between atoms: P_977  and  OP2_979
REMARK  392  A    between atoms: P_977  and  O5'_980
REMARK  393  A    between atoms: O5'_980  and  C5'_981
REMARK  394  A    between atoms: C5'_981  and  C4'_982
REMARK  395  A    between atoms: C3'_984  and  O3'_985
REMARK  396  A    between atoms: O3'_985  and  P_999
REMARK  397  A    between atoms: C2'_986  and  O2'_987
REMARK  398  A    between atoms: C1'_988  and  N9_989
REMARK  399  A    between atoms: P_999  and  OP2_1001
REMARK  400  A    between atoms: P_999  and  O5'_1002
REMARK  401  A    between atoms: O5'_1002  and  C5'_1003
REMARK  402  A    between atoms: C5'_1003  and  C4'_1004
REMARK  403  A    between atoms: C3'_1006  and  O3'_1007
REMARK  404  A    between atoms: O3'_1007  and  P_1019
REMARK  405  A    between atoms: C2'_1008  and  O2'_1009
REMARK  406  A    between atoms: C1'_1010  and  N1_1011
REMARK  407  A    between atoms: P_1019  and  OP2_1021
REMARK  408  A    between atoms: P_1019  and  O5'_1022
REMARK  409  A    between atoms: O5'_1022  and  C5'_1023
REMARK  410  A    between atoms: C5'_1023  and  C4'_1024
REMARK  411  A    between atoms: C3'_1026  and  O3'_1027
REMARK  412  A    between atoms: O3'_1027  and  P_1039
REMARK  413  A    between atoms: C2'_1028  and  O2'_1029
REMARK  414  A    between atoms: C1'_1030  and  N1_1031
REMARK  415  A    between atoms: P_1039  and  OP2_1041
REMARK  416  A    between atoms: P_1039  and  O5'_1042
REMARK  417  A    between atoms: O5'_1042  and  C5'_1043
REMARK  418  A    between atoms: C5'_1043  and  C4'_1044
REMARK  419  A    between atoms: C3'_1046  and  O3'_1047
REMARK  420  A    between atoms: O3'_1047  and  P_1059
REMARK  421  A    between atoms: C2'_1048  and  O2'_1049
REMARK  422  A    between atoms: C1'_1050  and  N1_1051
REMARK  423  A    between atoms: P_1059  and  OP1_1060
REMARK  424  A    between atoms: P_1059  and  O5'_1062
REMARK  425  A    between atoms: O5'_1062  and  C5'_1063
REMARK  426  A    between atoms: C5'_1063  and  C4'_1064
REMARK  427  A    between atoms: C3'_1066  and  O3'_1067
REMARK  428  A    between atoms: O3'_1067  and  P_1079
REMARK  429  A    between atoms: C2'_1068  and  O2'_1069
REMARK  430  A    between atoms: C1'_1070  and  N1_1071
REMARK  431  A    between atoms: P_1079  and  OP1_1080
REMARK  432  A    between atoms: P_1079  and  O5'_1082
REMARK  433  A    between atoms: O5'_1082  and  C5'_1083
REMARK  434  A    between atoms: C5'_1083  and  C4'_1084
REMARK  435  A    between atoms: C3'_1086  and  O3'_1087
REMARK  436  A    between atoms: O3'_1087  and  P_1101
REMARK  437  A    between atoms: C2'_1088  and  O2'_1089
REMARK  438  A    between atoms: C1'_1090  and  N9_1091
REMARK  439  A    between atoms: C6_1095  and  N6_1096
REMARK  440  A    between atoms: P_1101  and  OP1_1102
REMARK  441  A    between atoms: P_1101  and  O5'_1104
REMARK  442  A    between atoms: O5'_1104  and  C5'_1105
REMARK  443  A    between atoms: C5'_1105  and  C4'_1106
REMARK  444  A    between atoms: C3'_1108  and  O3'_1109
REMARK  445  A    between atoms: O3'_1109  and  P_1123
REMARK  446  A    between atoms: C2'_1110  and  O2'_1111
REMARK  447  A    between atoms: C1'_1112  and  N9_1113
REMARK  448  A    between atoms: C6_1117  and  N6_1118
REMARK  449  A    between atoms: P_1123  and  OP1_1124
REMARK  450  A    between atoms: P_1123  and  O5'_1126
REMARK  451  A    between atoms: O5'_1126  and  C5'_1127
REMARK  452  A    between atoms: C5'_1127  and  C4'_1128
REMARK  453  A    between atoms: C3'_1130  and  O3'_1131
REMARK  454  A    between atoms: O3'_1131  and  P_1145
REMARK  455  A    between atoms: C2'_1132  and  O2'_1133
REMARK  456  A    between atoms: C1'_1134  and  N9_1135
REMARK  457  A    between atoms: C6_1139  and  N6_1140
REMARK  458  A    between atoms: P_1145  and  OP1_1146
REMARK  459  A    between atoms: P_1145  and  O5'_1148
REMARK  460  A    between atoms: O5'_1148  and  C5'_1149
REMARK  461  A    between atoms: C5'_1149  and  C4'_1150
REMARK  462  A    between atoms: C3'_1152  and  O3'_1153
REMARK  463  A    between atoms: O3'_1153  and  P_1167
REMARK  464  A    between atoms: C2'_1154  and  O2'_1155
REMARK  465  A    between atoms: C1'_1156  and  N9_1157
REMARK  466  A    between atoms: C6_1161  and  N6_1162
REMARK  467  A    between atoms: P_1167  and  OP1_1168
REMARK  468  A    between atoms: P_1167  and  O5'_1170
REMARK  469  A    between atoms: O5'_1170  and  C5'_1171
REMARK  470  A    between atoms: C5'_1171  and  C4'_1172
REMARK  471  A    between atoms: C3'_1174  and  O3'_1175
REMARK  472  A    between atoms: O3'_1175  and  P_1189
REMARK  473  A    between atoms: C2'_1176  and  O2'_1177
REMARK  474  A    between atoms: C1'_1178  and  N9_1179
REMARK  475  A    between atoms: P_1189  and  OP2_1191
REMARK  476  A    between atoms: P_1189  and  O5'_1192
REMARK  477  A    between atoms: O5'_1192  and  C5'_1193
REMARK  478  A    between atoms: C5'_1193  and  C4'_1194
REMARK  479  A    between atoms: C3'_1196  and  O3'_1197
REMARK  480  A    between atoms: O3'_1197  and  P_1209
REMARK  481  A    between atoms: C2'_1198  and  O2'_1199
REMARK  482  A    between atoms: C1'_1200  and  N1_1201
REMARK  483  A    between atoms: P_1209  and  OP1_1210
REMARK  484  A    between atoms: P_1209  and  O5'_1212
REMARK  485  A    between atoms: O5'_1212  and  C5'_1213
REMARK  486  A    between atoms: C5'_1213  and  C4'_1214
REMARK  487  A    between atoms: C3'_1216  and  O3'_1217
REMARK  488  A    between atoms: O3'_1217  and  P_1231
REMARK  489  A    between atoms: C2'_1218  and  O2'_1219
REMARK  490  A    between atoms: C1'_1220  and  N9_1221
REMARK  491  A    between atoms: P_1231  and  OP2_1233
REMARK  492  A    between atoms: P_1231  and  O5'_1234
REMARK  493  A    between atoms: O5'_1234  and  C5'_1235
REMARK  494  A    between atoms: C5'_1235  and  C4'_1236
REMARK  495  A    between atoms: C3'_1238  and  O3'_1239
REMARK  496  A    between atoms: O3'_1239  and  P_1254
REMARK  497  A    between atoms: C2'_1240  and  O2'_1241
REMARK  498  A    between atoms: C1'_1242  and  N9_1243
REMARK  499  A    between atoms: P_1254  and  OP1_1255
REMARK  500  A    between atoms: P_1254  and  O5'_1257
REMARK  501  A    between atoms: O5'_1257  and  C5'_1258
REMARK  502  A    between atoms: C5'_1258  and  C4'_1259
REMARK  503  A    between atoms: C3'_1261  and  O3'_1262
REMARK  504  A    between atoms: O3'_1262  and  P_1276
REMARK  505  A    between atoms: C2'_1263  and  O2'_1264
REMARK  506  A    between atoms: C1'_1265  and  N9_1266
REMARK  507  A    between atoms: C6_1270  and  N6_1271
REMARK  508  A    between atoms: P_1276  and  OP1_1277
REMARK  509  A    between atoms: P_1276  and  O5'_1279
REMARK  510  A    between atoms: O5'_1279  and  C5'_1280
REMARK  511  A    between atoms: C5'_1280  and  C4'_1281
REMARK  512  A    between atoms: C3'_1283  and  O3'_1284
REMARK  513  A    between atoms: O3'_1284  and  P_1296
REMARK  514  A    between atoms: C2'_1285  and  O2'_1286
REMARK  515  A    between atoms: C1'_1287  and  N1_1288
REMARK  516  A    between atoms: P_1296  and  OP1_1297
REMARK  517  A    between atoms: P_1296  and  O5'_1299
REMARK  518  A    between atoms: O5'_1299  and  C5'_1300
REMARK  519  A    between atoms: C5'_1300  and  C4'_1301
REMARK  520  A    between atoms: C3'_1303  and  O3'_1304
REMARK  521  A    between atoms: O3'_1304  and  P_1316
REMARK  522  A    between atoms: C2'_1305  and  O2'_1306
REMARK  523  A    between atoms: C1'_1307  and  N1_1308
REMARK  524  A    between atoms: P_1316  and  OP2_1318
REMARK  525  A    between atoms: P_1316  and  O5'_1319
REMARK  526  A    between atoms: O5'_1319  and  C5'_1320
REMARK  527  A    between atoms: C5'_1320  and  C4'_1321
REMARK  528  A    between atoms: C3'_1323  and  O3'_1324
REMARK  529  A    between atoms: O3'_1324  and  P_1338
REMARK  530  A    between atoms: C2'_1325  and  O2'_1326
REMARK  531  A    between atoms: C1'_1327  and  N9_1328
REMARK  532  A    between atoms: P_1338  and  OP2_1340
REMARK  533  A    between atoms: P_1338  and  O5'_1341
REMARK  534  A    between atoms: O5'_1341  and  C5'_1342
REMARK  535  A    between atoms: C5'_1342  and  C4'_1343
REMARK  536  A    between atoms: C3'_1345  and  O3'_1346
REMARK  537  A    between atoms: C2'_1347  and  O2'_1348
REMARK  538  A    between atoms: C1'_1349  and  N1_1350
REMARK  539  A    between atoms: P_1358  and  C8_1393
REMARK  540  A    between atoms: P_1358  and  N7_1394
REMARK  541  A    between atoms: OP1_1359  and  N9_1392
REMARK  542  A    between atoms: OP1_1359  and  N7_1394
REMARK  543  A    between atoms: O5'_1361  and  C5'_1362
REMARK  544  A    between atoms: C5'_1362  and  C4'_1363
REMARK  545  A    between atoms: C3'_1365  and  O3'_1366
REMARK  546  A    between atoms: O3'_1366  and  P_1380
REMARK  547  A    between atoms: C2'_1367  and  O2'_1368
REMARK  548  A    between atoms: C1'_1369  and  N9_1370
REMARK  549  A    between atoms: P_1380  and  OP1_1381
REMARK  550  A    between atoms: P_1380  and  O5'_1383
REMARK  551  A    between atoms: O5'_1383  and  C5'_1384
REMARK  552  A    between atoms: C5'_1384  and  C4'_1385
REMARK  553  A    between atoms: C3'_1387  and  O3'_1388
REMARK  554  A    between atoms: O3'_1388  and  P_1402
REMARK  555  A    between atoms: C2'_1389  and  O2'_1390
REMARK  556  A    between atoms: P_1402  and  OP2_1404
REMARK  557  A    between atoms: P_1402  and  O5'_1405
REMARK  558  A    between atoms: O5'_1405  and  C5'_1406
REMARK  559  A    between atoms: C5'_1406  and  C4'_1407
REMARK  560  A    between atoms: C3'_1409  and  O3'_1410
REMARK  561  A    between atoms: O3'_1410  and  P_1424
REMARK  562  A    between atoms: C2'_1411  and  O2'_1412
REMARK  563  A    between atoms: C1'_1413  and  N9_1414
REMARK  564  A    between atoms: P_1424  and  OP2_1426
REMARK  565  A    between atoms: P_1424  and  O5'_1427
REMARK  566  A    between atoms: O5'_1427  and  C5'_1428
REMARK  567  A    between atoms: C5'_1428  and  C4'_1429
REMARK  568  A    between atoms: C3'_1431  and  O3'_1432
REMARK  569  A    between atoms: O3'_1432  and  P_1446
REMARK  570  A    between atoms: C2'_1433  and  O2'_1434
REMARK  571  A    between atoms: C1'_1435  and  N9_1436
REMARK  572  A    between atoms: P_1446  and  OP2_1448
REMARK  573  A    between atoms: P_1446  and  O5'_1449
REMARK  574  A    between atoms: O5'_1449  and  C5'_1450
REMARK  575  A    between atoms: C5'_1450  and  C4'_1451
REMARK  576  A    between atoms: C3'_1453  and  O3'_1454
REMARK  577  A    between atoms: O3'_1454  and  P_1468
REMARK  578  A    between atoms: C2'_1455  and  O2'_1456
REMARK  579  A    between atoms: C1'_1457  and  N9_1458
REMARK  580  A    between atoms: P_1468  and  OP2_1470
REMARK  581  A    between atoms: P_1468  and  O5'_1471
REMARK  582  A    between atoms: O5'_1471  and  C5'_1472
REMARK  583  A    between atoms: C5'_1472  and  C4'_1473
REMARK  584  A    between atoms: C3'_1475  and  O3'_1476
REMARK  585  A    between atoms: O3'_1476  and  P_1488
REMARK  586  A    between atoms: C2'_1477  and  O2'_1478
REMARK  587  A    between atoms: C1'_1479  and  N1_1480
REMARK  588  A    between atoms: P_1488  and  OP2_1490
REMARK  589  A    between atoms: P_1488  and  O5'_1491
REMARK  590  A    between atoms: O5'_1491  and  C5'_1492
REMARK  591  A    between atoms: C5'_1492  and  C4'_1493
REMARK  592  A    between atoms: C3'_1495  and  O3'_1496
REMARK  593  A    between atoms: O3'_1496  and  P_1508
REMARK  594  A    between atoms: C2'_1497  and  O2'_1498
REMARK  595  A    between atoms: C1'_1499  and  N1_1500
REMARK  596  A    between atoms: P_1508  and  OP2_1510
REMARK  597  A    between atoms: P_1508  and  O5'_1511
REMARK  598  A    between atoms: O5'_1511  and  C5'_1512
REMARK  599  A    between atoms: C5'_1512  and  C4'_1513
REMARK  600  A    between atoms: C3'_1515  and  O3'_1516
REMARK  601  A    between atoms: O3'_1516  and  P_1528
REMARK  602  A    between atoms: C2'_1517  and  O2'_1518
REMARK  603  A    between atoms: C1'_1519  and  N1_1520
REMARK  604  A    between atoms: P_1528  and  OP1_1529
REMARK  605  A    between atoms: P_1528  and  O5'_1531
REMARK  606  A    between atoms: O5'_1531  and  C5'_1532
REMARK  607  A    between atoms: C5'_1532  and  C4'_1533
REMARK  608  A    between atoms: C3'_1535  and  O3'_1536
REMARK  609  A    between atoms: O3'_1536  and  P_1548
REMARK  610  A    between atoms: C2'_1537  and  O2'_1538
REMARK  611  A    between atoms: C1'_1539  and  N1_1540
REMARK  612  A    between atoms: P_1548  and  OP1_1549
REMARK  613  A    between atoms: P_1548  and  O5'_1551
REMARK  614  A    between atoms: O5'_1551  and  C5'_1552
REMARK  615  A    between atoms: C5'_1552  and  C4'_1553
REMARK  616  A    between atoms: C3'_1555  and  O3'_1556
REMARK  617  A    between atoms: O3'_1556  and  P_1568
REMARK  618  A    between atoms: C2'_1557  and  O2'_1558
REMARK  619  A    between atoms: C1'_1559  and  N1_1560
REMARK  620  A    between atoms: P_1568  and  OP2_1570
REMARK  621  A    between atoms: P_1568  and  O5'_1571
REMARK  622  A    between atoms: O5'_1571  and  C5'_1572
REMARK  623  A    between atoms: C5'_1572  and  C4'_1573
REMARK  624  A    between atoms: C3'_1575  and  O3'_1576
REMARK  625  A    between atoms: C2'_1577  and  O2'_1578
REMARK  626  A    between atoms: C1'_1579  and  N9_1580
REMARK  627  A    between atoms: C6_1584  and  N6_1585
REMARK                            x       y       z     vdW  Elec       q    Type
REMARK                         _______ _______ _______ _____ _____    ______ ____
ROOT
ATOM      1  N7  A   B  67       4.840  12.104 -12.283  0.00  0.00    +0.000 NA
ATOM      2  H   A   B  67       4.090  12.781 -12.145  0.00  0.00    +0.000 HD
ENDROOT
BRANCH   1   3
ATOM      3  P   A   B  66       4.761  11.028 -11.677  0.00  0.00    +0.000 P 
ATOM      4  C8  A   B  67       4.873  11.049 -13.072  0.00  0.00    +0.000 C 
ATOM      5  H   A   B  66       5.818  10.590 -10.905  0.00  0.00    +0.000 HD
ENDBRANCH   1   3
BRANCH   1   6
ATOM      6  OP1 A   B  66       4.667  11.214 -13.145  0.00  0.00    +0.000 OA
BRANCH   6   7
ATOM      7  N9  A   B  67       4.015  11.124 -14.142  0.00  0.00    +0.000 NA
ATOM      8  H   A   B  67       4.163  10.207 -14.563  0.00  0.00    +0.000 HD
ATOM      9  H   A   B  67       4.298  11.850 -14.800  0.00  0.00    +0.000 HD
ENDBRANCH   6   7
ENDBRANCH   1   6
TORSDOF 3
REMARK  Name = /storage/kiran-stuff/aaRS/phase2/energy_scoring/vina_182jobs/shallow_domain_pro_PRO/ligand.h.pdb
REMARK  627 active torsions:
REMARK  status: ('A' for Active; 'I' for Inactive)
REMARK    1  A    between atoms: OP3_1  and  P_2
REMARK    2  A    between atoms: P_2  and  OP2_4
REMARK    3  A    between atoms: P_2  and  O5'_5
REMARK    4  A    between atoms: O5'_5  and  C5'_6
REMARK    5  A    between atoms: C5'_6  and  C4'_7
REMARK    6  A    between atoms: C3'_9  and  O3'_10
REMARK    7  A    between atoms: O3'_10  and  P_22
REMARK    8  A    between atoms: C2'_11  and  O2'_12
REMARK    9  A    between atoms: C1'_13  and  N1_14
REMARK   10  A    between atoms: P_22  and  OP1_23
REMARK   11  A    between atoms: P_22  and  O5'_25
REMARK   12  A    between atoms: OP1_23  and  C2_1587
REMARK   13  A    between atoms: O5'_25  and  C5'_26
REMARK   14  A    between atoms: C5'_26  and  C4'_27
REMARK   15  A    between atoms: C3'_29  and  O3'_30
REMARK   16  A    between atoms: O3'_30  and  P_42
REMARK   17  A    between atoms: C2'_31  and  O2'_32
REMARK   18  A    between atoms: C1'_33  and  N1_34
REMARK   19  A    between atoms: P_42  and  OP2_44
REMARK   20  A    between atoms: P_42  and  O5'_45
REMARK   21  A    between atoms: O5'_45  and  C5'_46
REMARK   22  A    between atoms: C5'_46  and  C4'_47
REMARK   23  A    between atoms: C3'_49  and  O3'_50
REMARK   24  A    between atoms: O3'_50  and  P_64
REMARK   25  A    between atoms: C2'_51  and  O2'_52
REMARK   26  A    between atoms: C1'_53  and  N9_54
REMARK   27  A    between atoms: C6_58  and  N6_59
REMARK   28  A    between atoms: P_64  and  OP1_65
REMARK   29  A    between atoms: P_64  and  O5'_67
REMARK   30  A    between atoms: O5'_67  and  C5'_68
REMARK   31  A    between atoms: C5'_68  and  C4'_69
REMARK   32  A    between atoms: C3'_71  and  O3'_72
REMARK   33  A    between atoms: O3'_72  and  P_86
REMARK   34  A    between atoms: C2'_73  and  O2'_74
REMARK   35  A    between atoms: C1'_75  and  N9_76
REMARK   36  A    between atoms: C6_80  and  N6_81
REMARK   37  A    between atoms: P_86  and  OP1_87
REMARK   38  A    between atoms: P_86  and  O5'_89
REMARK   39  A    between atoms: O5'_89  and  C5'_90
REMARK   40  A    between atoms: C5'_90  and  C4'_91
REMARK   41  A    between atoms: C3'_93  and  O3'_94
REMARK   42  A    between atoms: O3'_94  and  P_106
REMARK   43  A    between atoms: C2'_95  and  O2'_96
REMARK   44  A    between atoms: C1'_97  and  N1_98
REMARK   45  A    between atoms: P_106  and  OP1_107
REMARK   46  A    between atoms: P_106  and  O5'_109
REMARK   47  A    between atoms: O5'_109  and  C5'_110
REMARK   48  A    between atoms: C5'_110  and  C4'_111
REMARK   49  A    between atoms: C3'_113  and  O3'_114
REMARK   50  A    between atoms: O3'_114  and  P_128
REMARK   51  A    between atoms: C2'_115  and  O2'_116
REMARK   52  A    between atoms: C1'_117  and  N9_118
REMARK   53  A    between atoms: P_128  and  OP2_130
REMARK   54  A    between atoms: P_128  and  O5'_131
REMARK   55  A    between atoms: O5'_131  and  C5'_132
REMARK   56  A    between atoms: C5'_132  and  C4'_133
REMARK   57  A    between atoms: C3'_135  and  O3'_136
REMARK   58  A    between atoms: O3'_136  and  P_148
REMARK   59  A    between atoms: C2'_137  and  O2'_138
REMARK   60  A    between atoms: C1'_139  and  N1_140
REMARK   61  A    between atoms: P_148  and  OP2_150
REMARK   62  A    between atoms: P_148  and  O5'_151
REMARK   63  A    between atoms: O5'_151  and  C5'_152
REMARK   64  A    between atoms: C5'_152  and  C4'_153
REMARK   65  A    between atoms: C3'_155  and  O3'_156
REMARK   66  A    between atoms: O3'_156  and  P_168
REMARK   67  A    between atoms: C2'_157  and  O2'_158
REMARK   68  A    between atoms: C1'_159  and  N1_160
REMARK   69  A    between atoms: P_168  and  OP1_169
REMARK   70  A    between atoms: P_168  and  O5'_171
REMARK   71  A    between atoms: O5'_171  and  C5'_172
REMARK   72  A    between atoms: C5'_172  and  C4'_173
REMARK   73  A    between atoms: C3'_175  and  O3'_176
REMARK   74  A    between atoms: O3'_176  and  P_190
REMARK   75  A    between atoms: C2'_177  and  O2'_178
REMARK   76  A    between atoms: C1'_179  and  N9_180
REMARK   77  A    between atoms: C6_184  and  N6_185
REMARK   78  A    between atoms: P_190  and  OP1_191
REMARK   79  A    between atoms: P_190  and  O5'_193
REMARK   80  A    between atoms: O5'_193  and  C5'_194
REMARK   81  A    between atoms: C5'_194  and  C4'_195
REMARK   82  A    between atoms: C3'_197  and  O3'_198
REMARK   83  A    between atoms: O3'_198  and  P_210
REMARK   84  A    between atoms: C2'_199  and  O2'_200
REMARK   85  A    between atoms: C1'_201  and  N1_202
REMARK   86  A    between atoms: P_210  and  OP2_212
REMARK   87  A    between atoms: P_210  and  O5'_213
REMARK   88  A    between atoms: O5'_213  and  C5'_214
REMARK   89  A    between atoms: C5'_214  and  C4'_215
REMARK   90  A    between atoms: C3'_217  and  O3'_218
REMARK   91  A    between atoms: O3'_218  and  P_230
REMARK   92  A    between atoms: C2'_219  and  O2'_220
REMARK   93  A    between atoms: C1'_221  and  N1_222
REMARK   94  A    between atoms: P_230  and  OP2_232
REMARK   95  A    between atoms: P_230  and  O5'_233
REMARK   96  A    between atoms: O5'_233  and  C5'_234
REMARK   97  A    between atoms: C5'_234  and  C4'_235
REMARK   98  A    between atoms: C3'_237  and  O3'_238
REMARK   99  A    between atoms: O3'_238  and  P_250
REMARK  100  A    between atoms: C2'_239  and  O2'_240
REMARK  101  A    between atoms: C1'_241  and  N1_242
REMARK  102  A    between atoms: P_250  and  OP1_251
REMARK  103  A    between atoms: P_250  and  O5'_253
REMARK  104  A    between atoms: O5'_253  and  C5'_254
REMARK  105  A    between atoms: C5'_254  and  C4'_255
REMARK  106  A    between atoms: C3'_257  and  O3'_258
REMARK  107  A    between atoms: O3'_258  and  P_270
REMARK  108  A    between atoms: C2'_259  and  O2'_260
REMARK  109  A    between atoms: C1'_261  and  N1_262
REMARK  110  A    between atoms: P_270  and  OP1_271
REMARK  111  A    between atoms: P_270  and  O5'_273
REMARK  112  A    between atoms: O5'_273  and  C5'_274
REMARK  113  A    between atoms: C5'_274  and  C4'_275
REMARK  114  A    between atoms: C3'_277  and  O3'_278
REMARK  115  A    between atoms: O3'_278  and  P_292
REMARK  116  A    between atoms: C2'_279  and  O2'_280
REMARK  117  A    between atoms: C1'_281  and  N9_282
REMARK  118  A    between atoms: C6_286  and  N6_287
REMARK  119  A    between atoms: P_292  and  OP1_293
REMARK  120  A    between atoms: P_292  and  O5'_295
REMARK  121  A    between atoms: O5'_295  and  C5'_296
REMARK  122  A    between atoms: C5'_296  and  C4'_297
REMARK  123  A    between atoms: C3'_299  and  O3'_300
REMARK  124  A    between atoms: O3'_300  and  P_312
REMARK  125  A    between atoms: C2'_301  and  O2'_302
REMARK  126  A    between atoms: C1'_303  and  N1_304
REMARK  127  A    between atoms: P_312  and  OP1_313
REMARK  128  A    between atoms: P_312  and  O5'_315
REMARK  129  A    between atoms: O5'_315  and  C5'_316
REMARK  130  A    between atoms: C5'_316  and  C4'_317
REMARK  131  A    between atoms: C3'_319  and  O3'_320
REMARK  132  A    between atoms: O3'_320  and  P_332
REMARK  133  A    between atoms: C2'_321  and  O2'_322
REMARK  134  A    between atoms: C1'_323  and  N1_324
REMARK  135  A    between atoms: P_332  and  OP2_334
REMARK  136  A    between atoms: P_332  and  O5'_335
REMARK  137  A    between atoms: O5'_335  and  C5'_336
REMARK  138  A    between atoms: C5'_336  and  C4'_337
REMARK  139  A    between atoms: C3'_339  and  O3'_340
REMARK  140  A    between atoms: O3'_340  and  P_352
REMARK  141  A    between atoms: C2'_341  and  O2'_342
REMARK  142  A    between atoms: C1'_343  and  N1_344
REMARK  143  A    between atoms: P_352  and  OP1_353
REMARK  144  A    between atoms: P_352  and  O5'_355
REMARK  145  A    between atoms: O5'_355  and  C5'_356
REMARK  146  A    between atoms: C5'_356  and  C4'_357
REMARK  147  A    between atoms: C3'_359  and  O3'_360
REMARK  148  A    between atoms: O3'_360  and  P_375
REMARK  149  A    between atoms: C2'_361  and  O2'_362
REMARK  150  A    between atoms: C1'_363  and  N9_364
REMARK  151  A    between atoms: P_375  and  OP1_376
REMARK  152  A    between atoms: P_375  and  O5'_378
REMARK  153  A    between atoms: O5'_378  and  C5'_379
REMARK  154  A    between atoms: C5'_379  and  C4'_380
REMARK  155  A    between atoms: C3'_382  and  O3'_383
REMARK  156  A    between atoms: O3'_383  and  P_397
REMARK  157  A    between atoms: C2'_384  and  O2'_385
REMARK  158  A    between atoms: C1'_386  and  N9_387
REMARK  159  A    between atoms: C6_391  and  N6_392
REMARK  160  A    between atoms: P_397  and  OP1_398
REMARK  161  A    between atoms: P_397  and  O5'_400
REMARK  162  A    between atoms: O5'_400  and  C5'_401
REMARK  163  A    between atoms: C5'_401  and  C4'_402
REMARK  164  A    between atoms: C3'_404  and  O3'_405
REMARK  165  A    between atoms: O3'_405  and  P_419
REMARK  166  A    between atoms: C2'_406  and  O2'_407
REMARK  167  A    between atoms: C1'_408  and  N9_409
REMARK  168  A    between atoms: C6_413  and  N6_414
REMARK  169  A    between atoms: P_419  and  OP1_420
REMARK  170  A    between atoms: P_419  and  O5'_422
REMARK  171  A    between atoms: O5'_422  and  C5'_423
REMARK  172  A    between atoms: C5'_423  and  C4'_424
REMARK  173  A    between atoms: C3'_426  and  O3'_427
REMARK  174  A    between atoms: O3'_427  and  P_441
REMARK  175  A    between atoms: C2'_428  and  O2'_429
REMARK  176  A    between atoms: C1'_430  and  N9_431
REMARK  177  A    between atoms: C6_435  and  N6_436
REMARK  178  A    between atoms: P_441  and  OP1_442
REMARK  179  A    between atoms: P_441  and  O5'_444
REMARK  180  A    between atoms: O5'_444  and  C5'_445
REMARK  181  A    between atoms: C5'_445  and  C4'_446
REMARK  182  A    between atoms: C3'_448  and  O3'_449
REMARK  183  A    between atoms: O3'_449  and  P_461
REMARK  184  A    between atoms: C2'_450  and  O2'_451
REMARK  185  A    between atoms: C1'_452  and  N1_453
REMARK  186  A    between atoms: P_461  and  OP2_463
REMARK  187  A    between atoms: P_461  and  O5'_464
REMARK  188  A    between atoms: O5'_464  and  C5'_465
REMARK  189  A    between atoms: C5'_465  and  C4'_466
REMARK  190  A    between atoms: C3'_468  and  O3'_469
REMARK  191  A    between atoms: O3'_469  and  P_481
REMARK  192  A    between atoms: C2'_470  and  O2'_471
REMARK  193  A    between atoms: C1'_472  and  N1_473
REMARK  194  A    between atoms: P_481  and  OP2_483
REMARK  195  A    between atoms: P_481  and  O5'_484
REMARK  196  A    between atoms: O5'_484  and  C5'_485
REMARK  197  A    between atoms: C5'_485  and  C4'_486
REMARK  198  A    between atoms: C3'_488  and  O3'_489
REMARK  199  A    between atoms: O3'_489  and  P_501
REMARK  200  A    between atoms: C2'_490  and  O2'_491
REMARK  201  A    between atoms: C1'_492  and  N1_493
REMARK  202  A    between atoms: P_501  and  OP2_503
REMARK  203  A    between atoms: P_501  and  O5'_504
REMARK  204  A    between atoms: O5'_504  and  C5'_505
REMARK  205  A    between atoms: C5'_505  and  C4'_506
REMARK  206  A    between atoms: C3'_508  and  O3'_509
REMARK  207  A    between atoms: O3'_509  and  P_521
REMARK  208  A    between atoms: C2'_510  and  O2'_511
REMARK  209  A    between atoms: C1'_512  and  N1_513
REMARK  210  A    between atoms: P_521  and  OP2_523
REMARK  211  A    between atoms: P_521  and  O5'_524
REMARK  212  A    between atoms: O5'_524  and  C5'_525
REMARK  213  A    between atoms: C5'_525  and  C4'_526
REMARK  214  A    between atoms: C3'_528  and  O3'_529
REMARK  215  A    between atoms: O3'_529  and  P_541
REMARK  216  A    between atoms: C2'_530  and  O2'_531
REMARK  217  A    between atoms: C1'_532  and  N1_533
REMARK  218  A    between atoms: P_541  and  OP1_542
REMARK  219  A    between atoms: P_541  and  O5'_544
REMARK  220  A    between atoms: O5'_544  and  C5'_545
REMARK  221  A    between atoms: C5'_545  and  C4'_546
REMARK  222  A    between atoms: C3'_548  and  O3'_549
REMARK  223  A    between atoms: O3'_549  and  P_561
REMARK  224  A    between atoms: C2'_550  and  O2'_551
REMARK  225  A    between atoms: C1'_552  and  N1_553
REMARK  226  A    between atoms: P_561  and  OP1_562
REMARK  227  A    between atoms: P_561  and  O5'_564
REMARK  228  A    between atoms: O5'_564  and  C5'_565
REMARK  229  A    between atoms: C5'_565  and  C4'_566
REMARK  230  A    between atoms: C3'_568  and  O3'_569
REMARK  231  A    between atoms: O3'_569  and  P_581
REMARK  232  A    between atoms: C2'_570  and  O2'_571
REMARK  233  A    between atoms: C1'_572  and  N1_573
REMARK  234  A    between atoms: P_581  and  OP1_582
REMARK  235  A    between atoms: P_581  and  O5'_584
REMARK  236  A    between atoms: O5'_584  and  C5'_585
REMARK  237  A    between atoms: C5'_585  and  C4'_586
REMARK  238  A    between atoms: C3'_588  and  O3'_589
REMARK  239  A    between atoms: O3'_589  and  P_603
REMARK  240  A    between atoms: C2'_590  and  O2'_591
REMARK  241  A    between atoms: C1'_592  and  N9_593
REMARK  242  A    between atoms: C6_597  and  N6_598
REMARK  243  A    between atoms: P_603  and  OP1_604
REMARK  244  A    between atoms: P_603  and  O5'_606
REMARK  245  A    between atoms: O5'_606  and  C5'_607
REMARK  246  A    between atoms: C5'_607  and  C4'_608
REMARK  247  A    between atoms: C3'_610  and  O3'_611
REMARK  248  A    between atoms: O3'_611  and  P_625
REMARK  249  A    between atoms: C2'_612  and  O2'_613
REMARK  250  A    between atoms: C1'_614  and  N9_615
REMARK  251  A    between atoms: C6_619  and  N6_620
REMARK  252  A    between atoms: P_625  and  OP1_626
REMARK  253  A    between atoms: P_625  and  O5'_628
REMARK  254  A    between atoms: O5'_628  and  C5'_629
REMARK  255  A    between atoms: C5'_629  and  C4'_630
REMARK  256  A    between atoms: C3'_632  and  O3'_633
REMARK  257  A    between atoms: O3'_633  and  P_647
REMARK  258  A    between atoms: C2'_634  and  O2'_635
REMARK  259  A    between atoms: C1'_636  and  N9_637
REMARK  260  A    between atoms: C6_641  and  N6_642
REMARK  261  A    between atoms: P_647  and  OP1_648
REMARK  262  A    between atoms: P_647  and  O5'_650
REMARK  263  A    between atoms: O5'_650  and  C5'_651
REMARK  264  A    between atoms: C5'_651  and  C4'_652
REMARK  265  A    between atoms: C3'_654  and  O3'_655
REMARK  266  A    between atoms: O3'_655  and  P_669
REMARK  267  A    between atoms: C2'_656  and  O2'_657
REMARK  268  A    between atoms: C1'_658  and  N9_659
REMARK  269  A    between atoms: C6_663  and  N6_664
REMARK  270  A    between atoms: P_669  and  OP2_671
REMARK  271  A    between atoms: P_669  and  O5'_672
REMARK  272  A    between atoms: O5'_672  and  C5'_673
REMARK  273  A    between atoms: C5'_673  and  C4'_674
REMARK  274  A    between atoms: C3'_676  and  O3'_677
REMARK  275  A    between atoms: O3'_677  and  P_689
REMARK  276  A    between atoms: C2'_678  and  O2'_679
REMARK  277  A    between atoms: C1'_680  and  N1_681
REMARK  278  A    between atoms: P_689  and  OP2_691
REMARK  279  A    between atoms: P_689  and  O5'_692
REMARK  280  A    between atoms: O5'_692  and  C5'_693
REMARK  281  A    between atoms: C5'_693  and  C4'_694
REMARK  282  A    between atoms: C3'_696  and  O3'_697
REMARK  283  A    between atoms: O3'_697  and  P_711
REMARK  284  A    between atoms: C2'_698  and  O2'_699
REMARK  285  A    between atoms: C1'_700  and  N9_701
REMARK  286  A    between atoms: P_711  and  OP2_713
REMARK  287  A    between atoms: P_711  and  O5'_714
REMARK  288  A    between atoms: O5'_714  and  C5'_715
REMARK  289  A    between atoms: C5'_715  and  C4'_716
REMARK  290  A    between atoms: C3'_718  and  O3'_719
REMARK  291  A    between atoms: O3'_719  and  P_733
REMARK  292  A    between atoms: C2'_720  and  O2'_721
REMARK  293  A    between atoms: C1'_722  and  N9_723
REMARK  294  A    between atoms: P_733  and  OP2_735
REMARK  295  A    between atoms: P_733  and  O5'_736
REMARK  296  A    between atoms: O5'_736  and  C5'_737
REMARK  297  A    between atoms: C5'_737  and  C4'_738
REMARK  298  A    between atoms: C3'_740  and  O3'_741
REMARK  299  A    between atoms: O3'_741  and  P_753
REMARK  300  A    between atoms: C2'_742  and  O2'_743
REMARK  301  A    between atoms: C1'_744  and  N1_745
REMARK  302  A    between atoms: P_753  and  OP2_755
REMARK  303  A    between atoms: P_753  and  O5'_756
REMARK  304  A    between atoms: O5'_756  and  C5'_757
REMARK  305  A    between atoms: C5'_757  and  C4'_758
REMARK  306  A    between atoms: C3'_760  and  O3'_761
REMARK  307  A    between atoms: O3'_761  and  P_775
REMARK  308  A    between atoms: C2'_762  and  O2'_763
REMARK  309  A    between atoms: C1'_764  and  N9_765
REMARK  310  A    between atoms: P_775  and  OP1_776
REMARK  311  A    between atoms: P_775  and  O5'_778
REMARK  312  A    between atoms: O5'_778  and  C5'_779
REMARK  313  A    between atoms: C5'_779  and  C4'_780
REMARK  314  A    between atoms: C3'_782  and  O3'_783
REMARK  315  A    between atoms: O3'_783  and  P_795
REMARK  316  A    between atoms: C2'_784  and  O2'_785
REMARK  317  A    between atoms: C1'_786  and  N1_787
REMARK  318  A    between atoms: P_795  and  OP1_796
REMARK  319  A    between atoms: P_795  and  O5'_798
REMARK  320  A    between atoms: O5'_798  and  C5'_799
REMARK  321  A    between atoms: C5'_799  and  C4'_800
REMARK  322  A    between atoms: C3'_802  and  O3'_803
REMARK  323  A    between atoms: O3'_803  and  P_815
REMARK  324  A    between atoms: C2'_804  and  O2'_805
REMARK  325  A    between atoms: C1'_806  and  N1_807
REMARK  326  A    between atoms: P_815  and  OP1_816
REMARK  327  A    between atoms: P_815  and  O5'_818
REMARK  328  A    between atoms: O5'_818  and  C5'_819
REMARK  329  A    between atoms: C5'_819  and  C4'_820
REMARK  330  A    between atoms: C3'_822  and  O3'_823
REMARK  331  A    between atoms: O3'_823  and  P_835
REMARK  332  A    between atoms: C2'_824  and  O2'_825
REMARK  333  A    between atoms: C1'_826  and  N1_827
REMARK  334  A    between atoms: P_835  and  OP2_837
REMARK  335  A    between atoms: P_835  and  O5'_838
REMARK  336  A    between atoms: O5'_838  and  C5'_839
REMARK  337  A    between atoms: C5'_839  and  C4'_840
REMARK  338  A    between atoms: C3'_842  and  O3'_843
REMARK  339  A    between atoms: O3'_843  and  P_855
REMARK  340  A    between atoms: C2'_844  and  O2'_845
REMARK  341  A    between atoms: C1'_846  and  N1_847
REMARK  342  A    between atoms: P_855  and  OP2_857
REMARK  343  A    between atoms: P_855  and  O5'_858
REMARK  344  A    between atoms: O5'_858  and  C5'_859
REMARK  345  A    between atoms: C5'_859  and  C4'_860
REMARK  346  A    between atoms: C3'_862  and  O3'_863
REMARK  347  A    between atoms: O3'_863  and  P_875
REMARK  348  A    between atoms: C2'_864  and  O2'_865
REMARK  349  A    between atoms: C1'_866  and  N1_867
REMARK  350  A    between atoms: P_875  and  OP1_876
REMARK  351  A    between atoms: P_875  and  O5'_878
REMARK  352  A    between atoms: O5'_878  and  C5'_879
REMARK  353  A    between atoms: C5'_879  and  C4'_880
REMARK  354  A    between atoms: C3'_882  and  O3'_883
REMARK  355  A    between atoms: O3'_883  and  P_897
REMARK  356  A    between atoms: C2'_884  and  O2'_885
REMARK  357  A    between atoms: C1'_886  and  N9_887
REMARK  358  A    between atoms: C6_891  and  N6_892
REMARK  359  A    between atoms: P_897  and  OP1_898
REMARK  360  A    between atoms: P_897  and  O5'_900
REMARK  361  A    between atoms: O5'_900  and  C5'_901
REMARK  362  A    between atoms: C5'_901  and  C4'_902
REMARK  363  A    between atoms: C3'_904  and  O3'_905
REMARK  364  A    between atoms: O3'_905  and  P_917
REMARK  365  A    between atoms: C2'_906  and  O2'_907
REMARK  366  A    between atoms: C1'_908  and  N1_909
REMARK  367  A    between atoms: P_917  and  OP1_918
REMARK  368  A    between atoms: P_917  and  O5'_920
REMARK  369  A    between atoms: O5'_920  and  C5'_921
REMARK  370  A    between atoms: C5'_921  and  C4'_922
REMARK  371  A    between atoms: C3'_924  and  O3'_925
REMARK  372  A    between atoms: O3'_925  and  P_937
REMARK  373  A    between atoms: C2'_926  and  O2'_927
REMARK  374  A    between atoms: C1'_928  and  N1_929
REMARK  375  A    between atoms: P_937  and  OP2_939
REMARK  376  A    between atoms: P_937  and  O5'_940
REMARK  377  A    between atoms: O5'_940  and  C5'_941
REMARK  378  A    between atoms: C5'_941  and  C4'_942
REMARK  379  A    between atoms: C3'_944  and  O3'_945
REMARK  380  A    between atoms: O3'_945  and  P_957
REMARK  381  A    between atoms: C2'_946  and  O2'_947
REMARK  382  A    between atoms: C1'_948  and  N1_949
REMARK  383  A    between atoms: P_957  and  OP2_959
REMARK  384  A    between atoms: P_957  and  O5'_960
REMARK  385  A    between atoms: O5'_960  and  C5'_961
REMARK  386  A    between atoms: C5'_961  and  C4'_962
REMARK  387  A    between atoms: C3'_964  and  O3'_965
REMARK  388  A    between atoms: O3'_965  and  P_977
REMARK  389  A    between atoms: C2'_966  and  O2'_967
REMARK  390  A    between atoms: C1'_968  and  N1_969
REMARK  391  A    between atoms: P_977  and  OP2_979
REMARK  392  A    between atoms: P_977  and  O5'_980
REMARK  393  A    between atoms: O5'_980  and  C5'_981
REMARK  394  A    between atoms: C5'_981  and  C4'_982
REMARK  395  A    between atoms: C3'_984  and  O3'_985
REMARK  396  A    between atoms: O3'_985  and  P_999
REMARK  397  A    between atoms: C2'_986  and  O2'_987
REMARK  398  A    between atoms: C1'_988  and  N9_989
REMARK  399  A    between atoms: P_999  and  OP2_1001
REMARK  400  A    between atoms: P_999  and  O5'_1002
REMARK  401  A    between atoms: O5'_1002  and  C5'_1003
REMARK  402  A    between atoms: C5'_1003  and  C4'_1004
REMARK  403  A    between atoms: C3'_1006  and  O3'_1007
REMARK  404  A    between atoms: O3'_1007  and  P_1019
REMARK  405  A    between atoms: C2'_1008  and  O2'_1009
REMARK  406  A    between atoms: C1'_1010  and  N1_1011
REMARK  407  A    between atoms: P_1019  and  OP2_1021
REMARK  408  A    between atoms: P_1019  and  O5'_1022
REMARK  409  A    between atoms: O5'_1022  and  C5'_1023
REMARK  410  A    between atoms: C5'_1023  and  C4'_1024
REMARK  411  A    between atoms: C3'_1026  and  O3'_1027
REMARK  412  A    between atoms: O3'_1027  and  P_1039
REMARK  413  A    between atoms: C2'_1028  and  O2'_1029
REMARK  414  A    between atoms: C1'_1030  and  N1_1031
REMARK  415  A    between atoms: P_1039  and  OP2_1041
REMARK  416  A    between atoms: P_1039  and  O5'_1042
REMARK  417  A    between atoms: O5'_1042  and  C5'_1043
REMARK  418  A    between atoms: C5'_1043  and  C4'_1044
REMARK  419  A    between atoms: C3'_1046  and  O3'_1047
REMARK  420  A    between atoms: O3'_1047  and  P_1059
REMARK  421  A    between atoms: C2'_1048  and  O2'_1049
REMARK  422  A    between atoms: C1'_1050  and  N1_1051
REMARK  423  A    between atoms: P_1059  and  OP1_1060
REMARK  424  A    between atoms: P_1059  and  O5'_1062
REMARK  425  A    between atoms: O5'_1062  and  C5'_1063
REMARK  426  A    between atoms: C5'_1063  and  C4'_1064
REMARK  427  A    between atoms: C3'_1066  and  O3'_1067
REMARK  428  A    between atoms: O3'_1067  and  P_1079
REMARK  429  A    between atoms: C2'_1068  and  O2'_1069
REMARK  430  A    between atoms: C1'_1070  and  N1_1071
REMARK  431  A    between atoms: P_1079  and  OP1_1080
REMARK  432  A    between atoms: P_1079  and  O5'_1082
REMARK  433  A    between atoms: O5'_1082  and  C5'_1083
REMARK  434  A    between atoms: C5'_1083  and  C4'_1084
REMARK  435  A    between atoms: C3'_1086  and  O3'_1087
REMARK  436  A    between atoms: O3'_1087  and  P_1101
REMARK  437  A    between atoms: C2'_1088  and  O2'_1089
REMARK  438  A    between atoms: C1'_1090  and  N9_1091
REMARK  439  A    between atoms: C6_1095  and  N6_1096
REMARK  440  A    between atoms: P_1101  and  OP1_1102
REMARK  441  A    between atoms: P_1101  and  O5'_1104
REMARK  442  A    between atoms: O5'_1104  and  C5'_1105
REMARK  443  A    between atoms: C5'_1105  and  C4'_1106
REMARK  444  A    between atoms: C3'_1108  and  O3'_1109
REMARK  445  A    between atoms: O3'_1109  and  P_1123
REMARK  446  A    between atoms: C2'_1110  and  O2'_1111
REMARK  447  A    between atoms: C1'_1112  and  N9_1113
REMARK  448  A    between atoms: C6_1117  and  N6_1118
REMARK  449  A    between atoms: P_1123  and  OP1_1124
REMARK  450  A    between atoms: P_1123  and  O5'_1126
REMARK  451  A    between atoms: O5'_1126  and  C5'_1127
REMARK  452  A    between atoms: C5'_1127  and  C4'_1128
REMARK  453  A    between atoms: C3'_1130  and  O3'_1131
REMARK  454  A    between atoms: O3'_1131  and  P_1145
REMARK  455  A    between atoms: C2'_1132  and  O2'_1133
REMARK  456  A    between atoms: C1'_1134  and  N9_1135
REMARK  457  A    between atoms: C6_1139  and  N6_1140
REMARK  458  A    between atoms: P_1145  and  OP1_1146
REMARK  459  A    between atoms: P_1145  and  O5'_1148
REMARK  460  A    between atoms: O5'_1148  and  C5'_1149
REMARK  461  A    between atoms: C5'_1149  and  C4'_1150
REMARK  462  A    between atoms: C3'_1152  and  O3'_1153
REMARK  463  A    between atoms: O3'_1153  and  P_1167
REMARK  464  A    between atoms: C2'_1154  and  O2'_1155
REMARK  465  A    between atoms: C1'_1156  and  N9_1157
REMARK  466  A    between atoms: C6_1161  and  N6_1162
REMARK  467  A    between atoms: P_1167  and  OP1_1168
REMARK  468  A    between atoms: P_1167  and  O5'_1170
REMARK  469  A    between atoms: O5'_1170  and  C5'_1171
REMARK  470  A    between atoms: C5'_1171  and  C4'_1172
REMARK  471  A    between atoms: C3'_1174  and  O3'_1175
REMARK  472  A    between atoms: O3'_1175  and  P_1189
REMARK  473  A    between atoms: C2'_1176  and  O2'_1177
REMARK  474  A    between atoms: C1'_1178  and  N9_1179
REMARK  475  A    between atoms: P_1189  and  OP2_1191
REMARK  476  A    between atoms: P_1189  and  O5'_1192
REMARK  477  A    between atoms: O5'_1192  and  C5'_1193
REMARK  478  A    between atoms: C5'_1193  and  C4'_1194
REMARK  479  A    between atoms: C3'_1196  and  O3'_1197
REMARK  480  A    between atoms: O3'_1197  and  P_1209
REMARK  481  A    between atoms: C2'_1198  and  O2'_1199
REMARK  482  A    between atoms: C1'_1200  and  N1_1201
REMARK  483  A    between atoms: P_1209  and  OP1_1210
REMARK  484  A    between atoms: P_1209  and  O5'_1212
REMARK  485  A    between atoms: O5'_1212  and  C5'_1213
REMARK  486  A    between atoms: C5'_1213  and  C4'_1214
REMARK  487  A    between atoms: C3'_1216  and  O3'_1217
REMARK  488  A    between atoms: O3'_1217  and  P_1231
REMARK  489  A    between atoms: C2'_1218  and  O2'_1219
REMARK  490  A    between atoms: C1'_1220  and  N9_1221
REMARK  491  A    between atoms: P_1231  and  OP2_1233
REMARK  492  A    between atoms: P_1231  and  O5'_1234
REMARK  493  A    between atoms: O5'_1234  and  C5'_1235
REMARK  494  A    between atoms: C5'_1235  and  C4'_1236
REMARK  495  A    between atoms: C3'_1238  and  O3'_1239
REMARK  496  A    between atoms: O3'_1239  and  P_1254
REMARK  497  A    between atoms: C2'_1240  and  O2'_1241
REMARK  498  A    between atoms: C1'_1242  and  N9_1243
REMARK  499  A    between atoms: P_1254  and  OP1_1255
REMARK  500  A    between atoms: P_1254  and  O5'_1257
REMARK  501  A    between atoms: O5'_1257  and  C5'_1258
REMARK  502  A    between atoms: C5'_1258  and  C4'_1259
REMARK  503  A    between atoms: C3'_1261  and  O3'_1262
REMARK  504  A    between atoms: O3'_1262  and  P_1276
REMARK  505  A    between atoms: C2'_1263  and  O2'_1264
REMARK  506  A    between atoms: C1'_1265  and  N9_1266
REMARK  507  A    between atoms: C6_1270  and  N6_1271
REMARK  508  A    between atoms: P_1276  and  OP1_1277
REMARK  509  A    between atoms: P_1276  and  O5'_1279
REMARK  510  A    between atoms: O5'_1279  and  C5'_1280
REMARK  511  A    between atoms: C5'_1280  and  C4'_1281
REMARK  512  A    between atoms: C3'_1283  and  O3'_1284
REMARK  513  A    between atoms: O3'_1284  and  P_1296
REMARK  514  A    between atoms: C2'_1285  and  O2'_1286
REMARK  515  A    between atoms: C1'_1287  and  N1_1288
REMARK  516  A    between atoms: P_1296  and  OP1_1297
REMARK  517  A    between atoms: P_1296  and  O5'_1299
REMARK  518  A    between atoms: O5'_1299  and  C5'_1300
REMARK  519  A    between atoms: C5'_1300  and  C4'_1301
REMARK  520  A    between atoms: C3'_1303  and  O3'_1304
REMARK  521  A    between atoms: O3'_1304  and  P_1316
REMARK  522  A    between atoms: C2'_1305  and  O2'_1306
REMARK  523  A    between atoms: C1'_1307  and  N1_1308
REMARK  524  A    between atoms: P_1316  and  OP2_1318
REMARK  525  A    between atoms: P_1316  and  O5'_1319
REMARK  526  A    between atoms: O5'_1319  and  C5'_1320
REMARK  527  A    between atoms: C5'_1320  and  C4'_1321
REMARK  528  A    between atoms: C3'_1323  and  O3'_1324
REMARK  529  A    between atoms: O3'_1324  and  P_1338
REMARK  530  A    between atoms: C2'_1325  and  O2'_1326
REMARK  531  A    between atoms: C1'_1327  and  N9_1328
REMARK  532  A    between atoms: P_1338  and  OP2_1340
REMARK  533  A    between atoms: P_1338  and  O5'_1341
REMARK  534  A    between atoms: O5'_1341  and  C5'_1342
REMARK  535  A    between atoms: C5'_1342  and  C4'_1343
REMARK  536  A    between atoms: C3'_1345  and  O3'_1346
REMARK  537  A    between atoms: C2'_1347  and  O2'_1348
REMARK  538  A    between atoms: C1'_1349  and  N1_1350
REMARK  539  A    between atoms: P_1358  and  C8_1393
REMARK  540  A    between atoms: P_1358  and  N7_1394
REMARK  541  A    between atoms: OP1_1359  and  N9_1392
REMARK  542  A    between atoms: OP1_1359  and  N7_1394
REMARK  543  A    between atoms: O5'_1361  and  C5'_1362
REMARK  544  A    between atoms: C5'_1362  and  C4'_1363
REMARK  545  A    between atoms: C3'_1365  and  O3'_1366
REMARK  546  A    between atoms: O3'_1366  and  P_1380
REMARK  547  A    between atoms: C2'_1367  and  O2'_1368
REMARK  548  A    between atoms: C1'_1369  and  N9_1370
REMARK  549  A    between atoms: P_1380  and  OP1_1381
REMARK  550  A    between atoms: P_1380  and  O5'_1383
REMARK  551  A    between atoms: O5'_1383  and  C5'_1384
REMARK  552  A    between atoms: C5'_1384  and  C4'_1385
REMARK  553  A    between atoms: C3'_1387  and  O3'_1388
REMARK  554  A    between atoms: O3'_1388  and  P_1402
REMARK  555  A    between atoms: C2'_1389  and  O2'_1390
REMARK  556  A    between atoms: P_1402  and  OP2_1404
REMARK  557  A    between atoms: P_1402  and  O5'_1405
REMARK  558  A    between atoms: O5'_1405  and  C5'_1406
REMARK  559  A    between atoms: C5'_1406  and  C4'_1407
REMARK  560  A    between atoms: C3'_1409  and  O3'_1410
REMARK  561  A    between atoms: O3'_1410  and  P_1424
REMARK  562  A    between atoms: C2'_1411  and  O2'_1412
REMARK  563  A    between atoms: C1'_1413  and  N9_1414
REMARK  564  A    between atoms: P_1424  and  OP2_1426
REMARK  565  A    between atoms: P_1424  and  O5'_1427
REMARK  566  A    between atoms: O5'_1427  and  C5'_1428
REMARK  567  A    between atoms: C5'_1428  and  C4'_1429
REMARK  568  A    between atoms: C3'_1431  and  O3'_1432
REMARK  569  A    between atoms: O3'_1432  and  P_1446
REMARK  570  A    between atoms: C2'_1433  and  O2'_1434
REMARK  571  A    between atoms: C1'_1435  and  N9_1436
REMARK  572  A    between atoms: P_1446  and  OP2_1448
REMARK  573  A    between atoms: P_1446  and  O5'_1449
REMARK  574  A    between atoms: O5'_1449  and  C5'_1450
REMARK  575  A    between atoms: C5'_1450  and  C4'_1451
REMARK  576  A    between atoms: C3'_1453  and  O3'_1454
REMARK  577  A    between atoms: O3'_1454  and  P_1468
REMARK  578  A    between atoms: C2'_1455  and  O2'_1456
REMARK  579  A    between atoms: C1'_1457  and  N9_1458
REMARK  580  A    between atoms: P_1468  and  OP2_1470
REMARK  581  A    between atoms: P_1468  and  O5'_1471
REMARK  582  A    between atoms: O5'_1471  and  C5'_1472
REMARK  583  A    between atoms: C5'_1472  and  C4'_1473
REMARK  584  A    between atoms: C3'_1475  and  O3'_1476
REMARK  585  A    between atoms: O3'_1476  and  P_1488
REMARK  586  A    between atoms: C2'_1477  and  O2'_1478
REMARK  587  A    between atoms: C1'_1479  and  N1_1480
REMARK  588  A    between atoms: P_1488  and  OP2_1490
REMARK  589  A    between atoms: P_1488  and  O5'_1491
REMARK  590  A    between atoms: O5'_1491  and  C5'_1492
REMARK  591  A    between atoms: C5'_1492  and  C4'_1493
REMARK  592  A    between atoms: C3'_1495  and  O3'_1496
REMARK  593  A    between atoms: O3'_1496  and  P_1508
REMARK  594  A    between atoms: C2'_1497  and  O2'_1498
REMARK  595  A    between atoms: C1'_1499  and  N1_1500
REMARK  596  A    between atoms: P_1508  and  OP2_1510
REMARK  597  A    between atoms: P_1508  and  O5'_1511
REMARK  598  A    between atoms: O5'_1511  and  C5'_1512
REMARK  599  A    between atoms: C5'_1512  and  C4'_1513
REMARK  600  A    between atoms: C3'_1515  and  O3'_1516
REMARK  601  A    between atoms: O3'_1516  and  P_1528
REMARK  602  A    between atoms: C2'_1517  and  O2'_1518
REMARK  603  A    between atoms: C1'_1519  and  N1_1520
REMARK  604  A    between atoms: P_1528  and  OP1_1529
REMARK  605  A    between atoms: P_1528  and  O5'_1531
REMARK  606  A    between atoms: O5'_1531  and  C5'_1532
REMARK  607  A    between atoms: C5'_1532  and  C4'_1533
REMARK  608  A    between atoms: C3'_1535  and  O3'_1536
REMARK  609  A    between atoms: O3'_1536  and  P_1548
REMARK  610  A    between atoms: C2'_1537  and  O2'_1538
REMARK  611  A    between atoms: C1'_1539  and  N1_1540
REMARK  612  A    between atoms: P_1548  and  OP1_1549
REMARK  613  A    between atoms: P_1548  and  O5'_1551
REMARK  614  A    between atoms: O5'_1551  and  C5'_1552
REMARK  615  A    between atoms: C5'_1552  and  C4'_1553
REMARK  616  A    between atoms: C3'_1555  and  O3'_1556
REMARK  617  A    between atoms: O3'_1556  and  P_1568
REMARK  618  A    between atoms: C2'_1557  and  O2'_1558
REMARK  619  A    between atoms: C1'_1559  and  N1_1560
REMARK  620  A    between atoms: P_1568  and  OP2_1570
REMARK  621  A    between atoms: P_1568  and  O5'_1571
REMARK  622  A    between atoms: O5'_1571  and  C5'_1572
REMARK  623  A    between atoms: C5'_1572  and  C4'_1573
REMARK  624  A    between atoms: C3'_1575  and  O3'_1576
REMARK  625  A    between atoms: C2'_1577  and  O2'_1578
REMARK  626  A    between atoms: C1'_1579  and  N9_1580
REMARK  627  A    between atoms: C6_1584  and  N6_1585
REMARK                            x       y       z     vdW  Elec       q    Type
REMARK                         _______ _______ _______ _____ _____    ______ ____
ROOT
ATOM      1  OP2 A   B  66       3.627  10.419 -10.937  0.00  0.00    +0.000 OA
ATOM      2  H   A   B  66       4.597  10.419 -10.937  0.00  0.00    +0.000 HD
ATOM      3  H   A   B  66       3.304  11.319 -10.774  0.00  0.00    +0.000 HD
ENDROOT
TORSDOF 0
REMARK  Name = /storage/kiran-stuff/aaRS/phase2/energy_scoring/vina_182jobs/shallow_domain_pro_PRO/ligand.h.pdb
REMARK  627 active torsions:
REMARK  status: ('A' for Active; 'I' for Inactive)
REMARK    1  A    between atoms: OP3_1  and  P_2
REMARK    2  A    between atoms: P_2  and  OP2_4
REMARK    3  A    between atoms: P_2  and  O5'_5
REMARK    4  A    between atoms: O5'_5  and  C5'_6
REMARK    5  A    between atoms: C5'_6  and  C4'_7
REMARK    6  A    between atoms: C3'_9  and  O3'_10
REMARK    7  A    between atoms: O3'_10  and  P_22
REMARK    8  A    between atoms: C2'_11  and  O2'_12
REMARK    9  A    between atoms: C1'_13  and  N1_14
REMARK   10  A    between atoms: P_22  and  OP1_23
REMARK   11  A    between atoms: P_22  and  O5'_25
REMARK   12  A    between atoms: OP1_23  and  C2_1587
REMARK   13  A    between atoms: O5'_25  and  C5'_26
REMARK   14  A    between atoms: C5'_26  and  C4'_27
REMARK   15  A    between atoms: C3'_29  and  O3'_30
REMARK   16  A    between atoms: O3'_30  and  P_42
REMARK   17  A    between atoms: C2'_31  and  O2'_32
REMARK   18  A    between atoms: C1'_33  and  N1_34
REMARK   19  A    between atoms: P_42  and  OP2_44
REMARK   20  A    between atoms: P_42  and  O5'_45
REMARK   21  A    between atoms: O5'_45  and  C5'_46
REMARK   22  A    between atoms: C5'_46  and  C4'_47
REMARK   23  A    between atoms: C3'_49  and  O3'_50
REMARK   24  A    between atoms: O3'_50  and  P_64
REMARK   25  A    between atoms: C2'_51  and  O2'_52
REMARK   26  A    between atoms: C1'_53  and  N9_54
REMARK   27  A    between atoms: C6_58  and  N6_59
REMARK   28  A    between atoms: P_64  and  OP1_65
REMARK   29  A    between atoms: P_64  and  O5'_67
REMARK   30  A    between atoms: O5'_67  and  C5'_68
REMARK   31  A    between atoms: C5'_68  and  C4'_69
REMARK   32  A    between atoms: C3'_71  and  O3'_72
REMARK   33  A    between atoms: O3'_72  and  P_86
REMARK   34  A    between atoms: C2'_73  and  O2'_74
REMARK   35  A    between atoms: C1'_75  and  N9_76
REMARK   36  A    between atoms: C6_80  and  N6_81
REMARK   37  A    between atoms: P_86  and  OP1_87
REMARK   38  A    between atoms: P_86  and  O5'_89
REMARK   39  A    between atoms: O5'_89  and  C5'_90
REMARK   40  A    between atoms: C5'_90  and  C4'_91
REMARK   41  A    between atoms: C3'_93  and  O3'_94
REMARK   42  A    between atoms: O3'_94  and  P_106
REMARK   43  A    between atoms: C2'_95  and  O2'_96
REMARK   44  A    between atoms: C1'_97  and  N1_98
REMARK   45  A    between atoms: P_106  and  OP1_107
REMARK   46  A    between atoms: P_106  and  O5'_109
REMARK   47  A    between atoms: O5'_109  and  C5'_110
REMARK   48  A    between atoms: C5'_110  and  C4'_111
REMARK   49  A    between atoms: C3'_113  and  O3'_114
REMARK   50  A    between atoms: O3'_114  and  P_128
REMARK   51  A    between atoms: C2'_115  and  O2'_116
REMARK   52  A    between atoms: C1'_117  and  N9_118
REMARK   53  A    between atoms: P_128  and  OP2_130
REMARK   54  A    between atoms: P_128  and  O5'_131
REMARK   55  A    between atoms: O5'_131  and  C5'_132
REMARK   56  A    between atoms: C5'_132  and  C4'_133
REMARK   57  A    between atoms: C3'_135  and  O3'_136
REMARK   58  A    between atoms: O3'_136  and  P_148
REMARK   59  A    between atoms: C2'_137  and  O2'_138
REMARK   60  A    between atoms: C1'_139  and  N1_140
REMARK   61  A    between atoms: P_148  and  OP2_150
REMARK   62  A    between atoms: P_148  and  O5'_151
REMARK   63  A    between atoms: O5'_151  and  C5'_152
REMARK   64  A    between atoms: C5'_152  and  C4'_153
REMARK   65  A    between atoms: C3'_155  and  O3'_156
REMARK   66  A    between atoms: O3'_156  and  P_168
REMARK   67  A    between atoms: C2'_157  and  O2'_158
REMARK   68  A    between atoms: C1'_159  and  N1_160
REMARK   69  A    between atoms: P_168  and  OP1_169
REMARK   70  A    between atoms: P_168  and  O5'_171
REMARK   71  A    between atoms: O5'_171  and  C5'_172
REMARK   72  A    between atoms: C5'_172  and  C4'_173
REMARK   73  A    between atoms: C3'_175  and  O3'_176
REMARK   74  A    between atoms: O3'_176  and  P_190
REMARK   75  A    between atoms: C2'_177  and  O2'_178
REMARK   76  A    between atoms: C1'_179  and  N9_180
REMARK   77  A    between atoms: C6_184  and  N6_185
REMARK   78  A    between atoms: P_190  and  OP1_191
REMARK   79  A    between atoms: P_190  and  O5'_193
REMARK   80  A    between atoms: O5'_193  and  C5'_194
REMARK   81  A    between atoms: C5'_194  and  C4'_195
REMARK   82  A    between atoms: C3'_197  and  O3'_198
REMARK   83  A    between atoms: O3'_198  and  P_210
REMARK   84  A    between atoms: C2'_199  and  O2'_200
REMARK   85  A    between atoms: C1'_201  and  N1_202
REMARK   86  A    between atoms: P_210  and  OP2_212
REMARK   87  A    between atoms: P_210  and  O5'_213
REMARK   88  A    between atoms: O5'_213  and  C5'_214
REMARK   89  A    between atoms: C5'_214  and  C4'_215
REMARK   90  A    between atoms: C3'_217  and  O3'_218
REMARK   91  A    between atoms: O3'_218  and  P_230
REMARK   92  A    between atoms: C2'_219  and  O2'_220
REMARK   93  A    between atoms: C1'_221  and  N1_222
REMARK   94  A    between atoms: P_230  and  OP2_232
REMARK   95  A    between atoms: P_230  and  O5'_233
REMARK   96  A    between atoms: O5'_233  and  C5'_234
REMARK   97  A    between atoms: C5'_234  and  C4'_235
REMARK   98  A    between atoms: C3'_237  and  O3'_238
REMARK   99  A    between atoms: O3'_238  and  P_250
REMARK  100  A    between atoms: C2'_239  and  O2'_240
REMARK  101  A    between atoms: C1'_241  and  N1_242
REMARK  102  A    between atoms: P_250  and  OP1_251
REMARK  103  A    between atoms: P_250  and  O5'_253
REMARK  104  A    between atoms: O5'_253  and  C5'_254
REMARK  105  A    between atoms: C5'_254  and  C4'_255
REMARK  106  A    between atoms: C3'_257  and  O3'_258
REMARK  107  A    between atoms: O3'_258  and  P_270
REMARK  108  A    between atoms: C2'_259  and  O2'_260
REMARK  109  A    between atoms: C1'_261  and  N1_262
REMARK  110  A    between atoms: P_270  and  OP1_271
REMARK  111  A    between atoms: P_270  and  O5'_273
REMARK  112  A    between atoms: O5'_273  and  C5'_274
REMARK  113  A    between atoms: C5'_274  and  C4'_275
REMARK  114  A    between atoms: C3'_277  and  O3'_278
REMARK  115  A    between atoms: O3'_278  and  P_292
REMARK  116  A    between atoms: C2'_279  and  O2'_280
REMARK  117  A    between atoms: C1'_281  and  N9_282
REMARK  118  A    between atoms: C6_286  and  N6_287
REMARK  119  A    between atoms: P_292  and  OP1_293
REMARK  120  A    between atoms: P_292  and  O5'_295
REMARK  121  A    between atoms: O5'_295  and  C5'_296
REMARK  122  A    between atoms: C5'_296  and  C4'_297
REMARK  123  A    between atoms: C3'_299  and  O3'_300
REMARK  124  A    between atoms: O3'_300  and  P_312
REMARK  125  A    between atoms: C2'_301  and  O2'_302
REMARK  126  A    between atoms: C1'_303  and  N1_304
REMARK  127  A    between atoms: P_312  and  OP1_313
REMARK  128  A    between atoms: P_312  and  O5'_315
REMARK  129  A    between atoms: O5'_315  and  C5'_316
REMARK  130  A    between atoms: C5'_316  and  C4'_317
REMARK  131  A    between atoms: C3'_319  and  O3'_320
REMARK  132  A    between atoms: O3'_320  and  P_332
REMARK  133  A    between atoms: C2'_321  and  O2'_322
REMARK  134  A    between atoms: C1'_323  and  N1_324
REMARK  135  A    between atoms: P_332  and  OP2_334
REMARK  136  A    between atoms: P_332  and  O5'_335
REMARK  137  A    between atoms: O5'_335  and  C5'_336
REMARK  138  A    between atoms: C5'_336  and  C4'_337
REMARK  139  A    between atoms: C3'_339  and  O3'_340
REMARK  140  A    between atoms: O3'_340  and  P_352
REMARK  141  A    between atoms: C2'_341  and  O2'_342
REMARK  142  A    between atoms: C1'_343  and  N1_344
REMARK  143  A    between atoms: P_352  and  OP1_353
REMARK  144  A    between atoms: P_352  and  O5'_355
REMARK  145  A    between atoms: O5'_355  and  C5'_356
REMARK  146  A    between atoms: C5'_356  and  C4'_357
REMARK  147  A    between atoms: C3'_359  and  O3'_360
REMARK  148  A    between atoms: O3'_360  and  P_375
REMARK  149  A    between atoms: C2'_361  and  O2'_362
REMARK  150  A    between atoms: C1'_363  and  N9_364
REMARK  151  A    between atoms: P_375  and  OP1_376
REMARK  152  A    between atoms: P_375  and  O5'_378
REMARK  153  A    between atoms: O5'_378  and  C5'_379
REMARK  154  A    between atoms: C5'_379  and  C4'_380
REMARK  155  A    between atoms: C3'_382  and  O3'_383
REMARK  156  A    between atoms: O3'_383  and  P_397
REMARK  157  A    between atoms: C2'_384  and  O2'_385
REMARK  158  A    between atoms: C1'_386  and  N9_387
REMARK  159  A    between atoms: C6_391  and  N6_392
REMARK  160  A    between atoms: P_397  and  OP1_398
REMARK  161  A    between atoms: P_397  and  O5'_400
REMARK  162  A    between atoms: O5'_400  and  C5'_401
REMARK  163  A    between atoms: C5'_401  and  C4'_402
REMARK  164  A    between atoms: C3'_404  and  O3'_405
REMARK  165  A    between atoms: O3'_405  and  P_419
REMARK  166  A    between atoms: C2'_406  and  O2'_407
REMARK  167  A    between atoms: C1'_408  and  N9_409
REMARK  168  A    between atoms: C6_413  and  N6_414
REMARK  169  A    between atoms: P_419  and  OP1_420
REMARK  170  A    between atoms: P_419  and  O5'_422
REMARK  171  A    between atoms: O5'_422  and  C5'_423
REMARK  172  A    between atoms: C5'_423  and  C4'_424
REMARK  173  A    between atoms: C3'_426  and  O3'_427
REMARK  174  A    between atoms: O3'_427  and  P_441
REMARK  175  A    between atoms: C2'_428  and  O2'_429
REMARK  176  A    between atoms: C1'_430  and  N9_431
REMARK  177  A    between atoms: C6_435  and  N6_436
REMARK  178  A    between atoms: P_441  and  OP1_442
REMARK  179  A    between atoms: P_441  and  O5'_444
REMARK  180  A    between atoms: O5'_444  and  C5'_445
REMARK  181  A    between atoms: C5'_445  and  C4'_446
REMARK  182  A    between atoms: C3'_448  and  O3'_449
REMARK  183  A    between atoms: O3'_449  and  P_461
REMARK  184  A    between atoms: C2'_450  and  O2'_451
REMARK  185  A    between atoms: C1'_452  and  N1_453
REMARK  186  A    between atoms: P_461  and  OP2_463
REMARK  187  A    between atoms: P_461  and  O5'_464
REMARK  188  A    between atoms: O5'_464  and  C5'_465
REMARK  189  A    between atoms: C5'_465  and  C4'_466
REMARK  190  A    between atoms: C3'_468  and  O3'_469
REMARK  191  A    between atoms: O3'_469  and  P_481
REMARK  192  A    between atoms: C2'_470  and  O2'_471
REMARK  193  A    between atoms: C1'_472  and  N1_473
REMARK  194  A    between atoms: P_481  and  OP2_483
REMARK  195  A    between atoms: P_481  and  O5'_484
REMARK  196  A    between atoms: O5'_484  and  C5'_485
REMARK  197  A    between atoms: C5'_485  and  C4'_486
REMARK  198  A    between atoms: C3'_488  and  O3'_489
REMARK  199  A    between atoms: O3'_489  and  P_501
REMARK  200  A    between atoms: C2'_490  and  O2'_491
REMARK  201  A    between atoms: C1'_492  and  N1_493
REMARK  202  A    between atoms: P_501  and  OP2_503
REMARK  203  A    between atoms: P_501  and  O5'_504
REMARK  204  A    between atoms: O5'_504  and  C5'_505
REMARK  205  A    between atoms: C5'_505  and  C4'_506
REMARK  206  A    between atoms: C3'_508  and  O3'_509
REMARK  207  A    between atoms: O3'_509  and  P_521
REMARK  208  A    between atoms: C2'_510  and  O2'_511
REMARK  209  A    between atoms: C1'_512  and  N1_513
REMARK  210  A    between atoms: P_521  and  OP2_523
REMARK  211  A    between atoms: P_521  and  O5'_524
REMARK  212  A    between atoms: O5'_524  and  C5'_525
REMARK  213  A    between atoms: C5'_525  and  C4'_526
REMARK  214  A    between atoms: C3'_528  and  O3'_529
REMARK  215  A    between atoms: O3'_529  and  P_541
REMARK  216  A    between atoms: C2'_530  and  O2'_531
REMARK  217  A    between atoms: C1'_532  and  N1_533
REMARK  218  A    between atoms: P_541  and  OP1_542
REMARK  219  A    between atoms: P_541  and  O5'_544
REMARK  220  A    between atoms: O5'_544  and  C5'_545
REMARK  221  A    between atoms: C5'_545  and  C4'_546
REMARK  222  A    between atoms: C3'_548  and  O3'_549
REMARK  223  A    between atoms: O3'_549  and  P_561
REMARK  224  A    between atoms: C2'_550  and  O2'_551
REMARK  225  A    between atoms: C1'_552  and  N1_553
REMARK  226  A    between atoms: P_561  and  OP1_562
REMARK  227  A    between atoms: P_561  and  O5'_564
REMARK  228  A    between atoms: O5'_564  and  C5'_565
REMARK  229  A    between atoms: C5'_565  and  C4'_566
REMARK  230  A    between atoms: C3'_568  and  O3'_569
REMARK  231  A    between atoms: O3'_569  and  P_581
REMARK  232  A    between atoms: C2'_570  and  O2'_571
REMARK  233  A    between atoms: C1'_572  and  N1_573
REMARK  234  A    between atoms: P_581  and  OP1_582
REMARK  235  A    between atoms: P_581  and  O5'_584
REMARK  236  A    between atoms: O5'_584  and  C5'_585
REMARK  237  A    between atoms: C5'_585  and  C4'_586
REMARK  238  A    between atoms: C3'_588  and  O3'_589
REMARK  239  A    between atoms: O3'_589  and  P_603
REMARK  240  A    between atoms: C2'_590  and  O2'_591
REMARK  241  A    between atoms: C1'_592  and  N9_593
REMARK  242  A    between atoms: C6_597  and  N6_598
REMARK  243  A    between atoms: P_603  and  OP1_604
REMARK  244  A    between atoms: P_603  and  O5'_606
REMARK  245  A    between atoms: O5'_606  and  C5'_607
REMARK  246  A    between atoms: C5'_607  and  C4'_608
REMARK  247  A    between atoms: C3'_610  and  O3'_611
REMARK  248  A    between atoms: O3'_611  and  P_625
REMARK  249  A    between atoms: C2'_612  and  O2'_613
REMARK  250  A    between atoms: C1'_614  and  N9_615
REMARK  251  A    between atoms: C6_619  and  N6_620
REMARK  252  A    between atoms: P_625  and  OP1_626
REMARK  253  A    between atoms: P_625  and  O5'_628
REMARK  254  A    between atoms: O5'_628  and  C5'_629
REMARK  255  A    between atoms: C5'_629  and  C4'_630
REMARK  256  A    between atoms: C3'_632  and  O3'_633
REMARK  257  A    between atoms: O3'_633  and  P_647
REMARK  258  A    between atoms: C2'_634  and  O2'_635
REMARK  259  A    between atoms: C1'_636  and  N9_637
REMARK  260  A    between atoms: C6_641  and  N6_642
REMARK  261  A    between atoms: P_647  and  OP1_648
REMARK  262  A    between atoms: P_647  and  O5'_650
REMARK  263  A    between atoms: O5'_650  and  C5'_651
REMARK  264  A    between atoms: C5'_651  and  C4'_652
REMARK  265  A    between atoms: C3'_654  and  O3'_655
REMARK  266  A    between atoms: O3'_655  and  P_669
REMARK  267  A    between atoms: C2'_656  and  O2'_657
REMARK  268  A    between atoms: C1'_658  and  N9_659
REMARK  269  A    between atoms: C6_663  and  N6_664
REMARK  270  A    between atoms: P_669  and  OP2_671
REMARK  271  A    between atoms: P_669  and  O5'_672
REMARK  272  A    between atoms: O5'_672  and  C5'_673
REMARK  273  A    between atoms: C5'_673  and  C4'_674
REMARK  274  A    between atoms: C3'_676  and  O3'_677
REMARK  275  A    between atoms: O3'_677  and  P_689
REMARK  276  A    between atoms: C2'_678  and  O2'_679
REMARK  277  A    between atoms: C1'_680  and  N1_681
REMARK  278  A    between atoms: P_689  and  OP2_691
REMARK  279  A    between atoms: P_689  and  O5'_692
REMARK  280  A    between atoms: O5'_692  and  C5'_693
REMARK  281  A    between atoms: C5'_693  and  C4'_694
REMARK  282  A    between atoms: C3'_696  and  O3'_697
REMARK  283  A    between atoms: O3'_697  and  P_711
REMARK  284  A    between atoms: C2'_698  and  O2'_699
REMARK  285  A    between atoms: C1'_700  and  N9_701
REMARK  286  A    between atoms: P_711  and  OP2_713
REMARK  287  A    between atoms: P_711  and  O5'_714
REMARK  288  A    between atoms: O5'_714  and  C5'_715
REMARK  289  A    between atoms: C5'_715  and  C4'_716
REMARK  290  A    between atoms: C3'_718  and  O3'_719
REMARK  291  A    between atoms: O3'_719  and  P_733
REMARK  292  A    between atoms: C2'_720  and  O2'_721
REMARK  293  A    between atoms: C1'_722  and  N9_723
REMARK  294  A    between atoms: P_733  and  OP2_735
REMARK  295  A    between atoms: P_733  and  O5'_736
REMARK  296  A    between atoms: O5'_736  and  C5'_737
REMARK  297  A    between atoms: C5'_737  and  C4'_738
REMARK  298  A    between atoms: C3'_740  and  O3'_741
REMARK  299  A    between atoms: O3'_741  and  P_753
REMARK  300  A    between atoms: C2'_742  and  O2'_743
REMARK  301  A    between atoms: C1'_744  and  N1_745
REMARK  302  A    between atoms: P_753  and  OP2_755
REMARK  303  A    between atoms: P_753  and  O5'_756
REMARK  304  A    between atoms: O5'_756  and  C5'_757
REMARK  305  A    between atoms: C5'_757  and  C4'_758
REMARK  306  A    between atoms: C3'_760  and  O3'_761
REMARK  307  A    between atoms: O3'_761  and  P_775
REMARK  308  A    between atoms: C2'_762  and  O2'_763
REMARK  309  A    between atoms: C1'_764  and  N9_765
REMARK  310  A    between atoms: P_775  and  OP1_776
REMARK  311  A    between atoms: P_775  and  O5'_778
REMARK  312  A    between atoms: O5'_778  and  C5'_779
REMARK  313  A    between atoms: C5'_779  and  C4'_780
REMARK  314  A    between atoms: C3'_782  and  O3'_783
REMARK  315  A    between atoms: O3'_783  and  P_795
REMARK  316  A    between atoms: C2'_784  and  O2'_785
REMARK  317  A    between atoms: C1'_786  and  N1_787
REMARK  318  A    between atoms: P_795  and  OP1_796
REMARK  319  A    between atoms: P_795  and  O5'_798
REMARK  320  A    between atoms: O5'_798  and  C5'_799
REMARK  321  A    between atoms: C5'_799  and  C4'_800
REMARK  322  A    between atoms: C3'_802  and  O3'_803
REMARK  323  A    between atoms: O3'_803  and  P_815
REMARK  324  A    between atoms: C2'_804  and  O2'_805
REMARK  325  A    between atoms: C1'_806  and  N1_807
REMARK  326  A    between atoms: P_815  and  OP1_816
REMARK  327  A    between atoms: P_815  and  O5'_818
REMARK  328  A    between atoms: O5'_818  and  C5'_819
REMARK  329  A    between atoms: C5'_819  and  C4'_820
REMARK  330  A    between atoms: C3'_822  and  O3'_823
REMARK  331  A    between atoms: O3'_823  and  P_835
REMARK  332  A    between atoms: C2'_824  and  O2'_825
REMARK  333  A    between atoms: C1'_826  and  N1_827
REMARK  334  A    between atoms: P_835  and  OP2_837
REMARK  335  A    between atoms: P_835  and  O5'_838
REMARK  336  A    between atoms: O5'_838  and  C5'_839
REMARK  337  A    between atoms: C5'_839  and  C4'_840
REMARK  338  A    between atoms: C3'_842  and  O3'_843
REMARK  339  A    between atoms: O3'_843  and  P_855
REMARK  340  A    between atoms: C2'_844  and  O2'_845
REMARK  341  A    between atoms: C1'_846  and  N1_847
REMARK  342  A    between atoms: P_855  and  OP2_857
REMARK  343  A    between atoms: P_855  and  O5'_858
REMARK  344  A    between atoms: O5'_858  and  C5'_859
REMARK  345  A    between atoms: C5'_859  and  C4'_860
REMARK  346  A    between atoms: C3'_862  and  O3'_863
REMARK  347  A    between atoms: O3'_863  and  P_875
REMARK  348  A    between atoms: C2'_864  and  O2'_865
REMARK  349  A    between atoms: C1'_866  and  N1_867
REMARK  350  A    between atoms: P_875  and  OP1_876
REMARK  351  A    between atoms: P_875  and  O5'_878
REMARK  352  A    between atoms: O5'_878  and  C5'_879
REMARK  353  A    between atoms: C5'_879  and  C4'_880
REMARK  354  A    between atoms: C3'_882  and  O3'_883
REMARK  355  A    between atoms: O3'_883  and  P_897
REMARK  356  A    between atoms: C2'_884  and  O2'_885
REMARK  357  A    between atoms: C1'_886  and  N9_887
REMARK  358  A    between atoms: C6_891  and  N6_892
REMARK  359  A    between atoms: P_897  and  OP1_898
REMARK  360  A    between atoms: P_897  and  O5'_900
REMARK  361  A    between atoms: O5'_900  and  C5'_901
REMARK  362  A    between atoms: C5'_901  and  C4'_902
REMARK  363  A    between atoms: C3'_904  and  O3'_905
REMARK  364  A    between atoms: O3'_905  and  P_917
REMARK  365  A    between atoms: C2'_906  and  O2'_907
REMARK  366  A    between atoms: C1'_908  and  N1_909
REMARK  367  A    between atoms: P_917  and  OP1_918
REMARK  368  A    between atoms: P_917  and  O5'_920
REMARK  369  A    between atoms: O5'_920  and  C5'_921
REMARK  370  A    between atoms: C5'_921  and  C4'_922
REMARK  371  A    between atoms: C3'_924  and  O3'_925
REMARK  372  A    between atoms: O3'_925  and  P_937
REMARK  373  A    between atoms: C2'_926  and  O2'_927
REMARK  374  A    between atoms: C1'_928  and  N1_929
REMARK  375  A    between atoms: P_937  and  OP2_939
REMARK  376  A    between atoms: P_937  and  O5'_940
REMARK  377  A    between atoms: O5'_940  and  C5'_941
REMARK  378  A    between atoms: C5'_941  and  C4'_942
REMARK  379  A    between atoms: C3'_944  and  O3'_945
REMARK  380  A    between atoms: O3'_945  and  P_957
REMARK  381  A    between atoms: C2'_946  and  O2'_947
REMARK  382  A    between atoms: C1'_948  and  N1_949
REMARK  383  A    between atoms: P_957  and  OP2_959
REMARK  384  A    between atoms: P_957  and  O5'_960
REMARK  385  A    between atoms: O5'_960  and  C5'_961
REMARK  386  A    between atoms: C5'_961  and  C4'_962
REMARK  387  A    between atoms: C3'_964  and  O3'_965
REMARK  388  A    between atoms: O3'_965  and  P_977
REMARK  389  A    between atoms: C2'_966  and  O2'_967
REMARK  390  A    between atoms: C1'_968  and  N1_969
REMARK  391  A    between atoms: P_977  and  OP2_979
REMARK  392  A    between atoms: P_977  and  O5'_980
REMARK  393  A    between atoms: O5'_980  and  C5'_981
REMARK  394  A    between atoms: C5'_981  and  C4'_982
REMARK  395  A    between atoms: C3'_984  and  O3'_985
REMARK  396  A    between atoms: O3'_985  and  P_999
REMARK  397  A    between atoms: C2'_986  and  O2'_987
REMARK  398  A    between atoms: C1'_988  and  N9_989
REMARK  399  A    between atoms: P_999  and  OP2_1001
REMARK  400  A    between atoms: P_999  and  O5'_1002
REMARK  401  A    between atoms: O5'_1002  and  C5'_1003
REMARK  402  A    between atoms: C5'_1003  and  C4'_1004
REMARK  403  A    between atoms: C3'_1006  and  O3'_1007
REMARK  404  A    between atoms: O3'_1007  and  P_1019
REMARK  405  A    between atoms: C2'_1008  and  O2'_1009
REMARK  406  A    between atoms: C1'_1010  and  N1_1011
REMARK  407  A    between atoms: P_1019  and  OP2_1021
REMARK  408  A    between atoms: P_1019  and  O5'_1022
REMARK  409  A    between atoms: O5'_1022  and  C5'_1023
REMARK  410  A    between atoms: C5'_1023  and  C4'_1024
REMARK  411  A    between atoms: C3'_1026  and  O3'_1027
REMARK  412  A    between atoms: O3'_1027  and  P_1039
REMARK  413  A    between atoms: C2'_1028  and  O2'_1029
REMARK  414  A    between atoms: C1'_1030  and  N1_1031
REMARK  415  A    between atoms: P_1039  and  OP2_1041
REMARK  416  A    between atoms: P_1039  and  O5'_1042
REMARK  417  A    between atoms: O5'_1042  and  C5'_1043
REMARK  418  A    between atoms: C5'_1043  and  C4'_1044
REMARK  419  A    between atoms: C3'_1046  and  O3'_1047
REMARK  420  A    between atoms: O3'_1047  and  P_1059
REMARK  421  A    between atoms: C2'_1048  and  O2'_1049
REMARK  422  A    between atoms: C1'_1050  and  N1_1051
REMARK  423  A    between atoms: P_1059  and  OP1_1060
REMARK  424  A    between atoms: P_1059  and  O5'_1062
REMARK  425  A    between atoms: O5'_1062  and  C5'_1063
REMARK  426  A    between atoms: C5'_1063  and  C4'_1064
REMARK  427  A    between atoms: C3'_1066  and  O3'_1067
REMARK  428  A    between atoms: O3'_1067  and  P_1079
REMARK  429  A    between atoms: C2'_1068  and  O2'_1069
REMARK  430  A    between atoms: C1'_1070  and  N1_1071
REMARK  431  A    between atoms: P_1079  and  OP1_1080
REMARK  432  A    between atoms: P_1079  and  O5'_1082
REMARK  433  A    between atoms: O5'_1082  and  C5'_1083
REMARK  434  A    between atoms: C5'_1083  and  C4'_1084
REMARK  435  A    between atoms: C3'_1086  and  O3'_1087
REMARK  436  A    between atoms: O3'_1087  and  P_1101
REMARK  437  A    between atoms: C2'_1088  and  O2'_1089
REMARK  438  A    between atoms: C1'_1090  and  N9_1091
REMARK  439  A    between atoms: C6_1095  and  N6_1096
REMARK  440  A    between atoms: P_1101  and  OP1_1102
REMARK  441  A    between atoms: P_1101  and  O5'_1104
REMARK  442  A    between atoms: O5'_1104  and  C5'_1105
REMARK  443  A    between atoms: C5'_1105  and  C4'_1106
REMARK  444  A    between atoms: C3'_1108  and  O3'_1109
REMARK  445  A    between atoms: O3'_1109  and  P_1123
REMARK  446  A    between atoms: C2'_1110  and  O2'_1111
REMARK  447  A    between atoms: C1'_1112  and  N9_1113
REMARK  448  A    between atoms: C6_1117  and  N6_1118
REMARK  449  A    between atoms: P_1123  and  OP1_1124
REMARK  450  A    between atoms: P_1123  and  O5'_1126
REMARK  451  A    between atoms: O5'_1126  and  C5'_1127
REMARK  452  A    between atoms: C5'_1127  and  C4'_1128
REMARK  453  A    between atoms: C3'_1130  and  O3'_1131
REMARK  454  A    between atoms: O3'_1131  and  P_1145
REMARK  455  A    between atoms: C2'_1132  and  O2'_1133
REMARK  456  A    between atoms: C1'_1134  and  N9_1135
REMARK  457  A    between atoms: C6_1139  and  N6_1140
REMARK  458  A    between atoms: P_1145  and  OP1_1146
REMARK  459  A    between atoms: P_1145  and  O5'_1148
REMARK  460  A    between atoms: O5'_1148  and  C5'_1149
REMARK  461  A    between atoms: C5'_1149  and  C4'_1150
REMARK  462  A    between atoms: C3'_1152  and  O3'_1153
REMARK  463  A    between atoms: O3'_1153  and  P_1167
REMARK  464  A    between atoms: C2'_1154  and  O2'_1155
REMARK  465  A    between atoms: C1'_1156  and  N9_1157
REMARK  466  A    between atoms: C6_1161  and  N6_1162
REMARK  467  A    between atoms: P_1167  and  OP1_1168
REMARK  468  A    between atoms: P_1167  and  O5'_1170
REMARK  469  A    between atoms: O5'_1170  and  C5'_1171
REMARK  470  A    between atoms: C5'_1171  and  C4'_1172
REMARK  471  A    between atoms: C3'_1174  and  O3'_1175
REMARK  472  A    between atoms: O3'_1175  and  P_1189
REMARK  473  A    between atoms: C2'_1176  and  O2'_1177
REMARK  474  A    between atoms: C1'_1178  and  N9_1179
REMARK  475  A    between atoms: P_1189  and  OP2_1191
REMARK  476  A    between atoms: P_1189  and  O5'_1192
REMARK  477  A    between atoms: O5'_1192  and  C5'_1193
REMARK  478  A    between atoms: C5'_1193  and  C4'_1194
REMARK  479  A    between atoms: C3'_1196  and  O3'_1197
REMARK  480  A    between atoms: O3'_1197  and  P_1209
REMARK  481  A    between atoms: C2'_1198  and  O2'_1199
REMARK  482  A    between atoms: C1'_1200  and  N1_1201
REMARK  483  A    between atoms: P_1209  and  OP1_1210
REMARK  484  A    between atoms: P_1209  and  O5'_1212
REMARK  485  A    between atoms: O5'_1212  and  C5'_1213
REMARK  486  A    between atoms: C5'_1213  and  C4'_1214
REMARK  487  A    between atoms: C3'_1216  and  O3'_1217
REMARK  488  A    between atoms: O3'_1217  and  P_1231
REMARK  489  A    between atoms: C2'_1218  and  O2'_1219
REMARK  490  A    between atoms: C1'_1220  and  N9_1221
REMARK  491  A    between atoms: P_1231  and  OP2_1233
REMARK  492  A    between atoms: P_1231  and  O5'_1234
REMARK  493  A    between atoms: O5'_1234  and  C5'_1235
REMARK  494  A    between atoms: C5'_1235  and  C4'_1236
REMARK  495  A    between atoms: C3'_1238  and  O3'_1239
REMARK  496  A    between atoms: O3'_1239  and  P_1254
REMARK  497  A    between atoms: C2'_1240  and  O2'_1241
REMARK  498  A    between atoms: C1'_1242  and  N9_1243
REMARK  499  A    between atoms: P_1254  and  OP1_1255
REMARK  500  A    between atoms: P_1254  and  O5'_1257
REMARK  501  A    between atoms: O5'_1257  and  C5'_1258
REMARK  502  A    between atoms: C5'_1258  and  C4'_1259
REMARK  503  A    between atoms: C3'_1261  and  O3'_1262
REMARK  504  A    between atoms: O3'_1262  and  P_1276
REMARK  505  A    between atoms: C2'_1263  and  O2'_1264
REMARK  506  A    between atoms: C1'_1265  and  N9_1266
REMARK  507  A    between atoms: C6_1270  and  N6_1271
REMARK  508  A    between atoms: P_1276  and  OP1_1277
REMARK  509  A    between atoms: P_1276  and  O5'_1279
REMARK  510  A    between atoms: O5'_1279  and  C5'_1280
REMARK  511  A    between atoms: C5'_1280  and  C4'_1281
REMARK  512  A    between atoms: C3'_1283  and  O3'_1284
REMARK  513  A    between atoms: O3'_1284  and  P_1296
REMARK  514  A    between atoms: C2'_1285  and  O2'_1286
REMARK  515  A    between atoms: C1'_1287  and  N1_1288
REMARK  516  A    between atoms: P_1296  and  OP1_1297
REMARK  517  A    between atoms: P_1296  and  O5'_1299
REMARK  518  A    between atoms: O5'_1299  and  C5'_1300
REMARK  519  A    between atoms: C5'_1300  and  C4'_1301
REMARK  520  A    between atoms: C3'_1303  and  O3'_1304
REMARK  521  A    between atoms: O3'_1304  and  P_1316
REMARK  522  A    between atoms: C2'_1305  and  O2'_1306
REMARK  523  A    between atoms: C1'_1307  and  N1_1308
REMARK  524  A    between atoms: P_1316  and  OP2_1318
REMARK  525  A    between atoms: P_1316  and  O5'_1319
REMARK  526  A    between atoms: O5'_1319  and  C5'_1320
REMARK  527  A    between atoms: C5'_1320  and  C4'_1321
REMARK  528  A    between atoms: C3'_1323  and  O3'_1324
REMARK  529  A    between atoms: O3'_1324  and  P_1338
REMARK  530  A    between atoms: C2'_1325  and  O2'_1326
REMARK  531  A    between atoms: C1'_1327  and  N9_1328
REMARK  532  A    between atoms: P_1338  and  OP2_1340
REMARK  533  A    between atoms: P_1338  and  O5'_1341
REMARK  534  A    between atoms: O5'_1341  and  C5'_1342
REMARK  535  A    between atoms: C5'_1342  and  C4'_1343
REMARK  536  A    between atoms: C3'_1345  and  O3'_1346
REMARK  537  A    between atoms: C2'_1347  and  O2'_1348
REMARK  538  A    between atoms: C1'_1349  and  N1_1350
REMARK  539  A    between atoms: P_1358  and  C8_1393
REMARK  540  A    between atoms: P_1358  and  N7_1394
REMARK  541  A    between atoms: OP1_1359  and  N9_1392
REMARK  542  A    between atoms: OP1_1359  and  N7_1394
REMARK  543  A    between atoms: O5'_1361  and  C5'_1362
REMARK  544  A    between atoms: C5'_1362  and  C4'_1363
REMARK  545  A    between atoms: C3'_1365  and  O3'_1366
REMARK  546  A    between atoms: O3'_1366  and  P_1380
REMARK  547  A    between atoms: C2'_1367  and  O2'_1368
REMARK  548  A    between atoms: C1'_1369  and  N9_1370
REMARK  549  A    between atoms: P_1380  and  OP1_1381
REMARK  550  A    between atoms: P_1380  and  O5'_1383
REMARK  551  A    between atoms: O5'_1383  and  C5'_1384
REMARK  552  A    between atoms: C5'_1384  and  C4'_1385
REMARK  553  A    between atoms: C3'_1387  and  O3'_1388
REMARK  554  A    between atoms: O3'_1388  and  P_1402
REMARK  555  A    between atoms: C2'_1389  and  O2'_1390
REMARK  556  A    between atoms: P_1402  and  OP2_1404
REMARK  557  A    between atoms: P_1402  and  O5'_1405
REMARK  558  A    between atoms: O5'_1405  and  C5'_1406
REMARK  559  A    between atoms: C5'_1406  and  C4'_1407
REMARK  560  A    between atoms: C3'_1409  and  O3'_1410
REMARK  561  A    between atoms: O3'_1410  and  P_1424
REMARK  562  A    between atoms: C2'_1411  and  O2'_1412
REMARK  563  A    between atoms: C1'_1413  and  N9_1414
REMARK  564  A    between atoms: P_1424  and  OP2_1426
REMARK  565  A    between atoms: P_1424  and  O5'_1427
REMARK  566  A    between atoms: O5'_1427  and  C5'_1428
REMARK  567  A    between atoms: C5'_1428  and  C4'_1429
REMARK  568  A    between atoms: C3'_1431  and  O3'_1432
REMARK  569  A    between atoms: O3'_1432  and  P_1446
REMARK  570  A    between atoms: C2'_1433  and  O2'_1434
REMARK  571  A    between atoms: C1'_1435  and  N9_1436
REMARK  572  A    between atoms: P_1446  and  OP2_1448
REMARK  573  A    between atoms: P_1446  and  O5'_1449
REMARK  574  A    between atoms: O5'_1449  and  C5'_1450
REMARK  575  A    between atoms: C5'_1450  and  C4'_1451
REMARK  576  A    between atoms: C3'_1453  and  O3'_1454
REMARK  577  A    between atoms: O3'_1454  and  P_1468
REMARK  578  A    between atoms: C2'_1455  and  O2'_1456
REMARK  579  A    between atoms: C1'_1457  and  N9_1458
REMARK  580  A    between atoms: P_1468  and  OP2_1470
REMARK  581  A    between atoms: P_1468  and  O5'_1471
REMARK  582  A    between atoms: O5'_1471  and  C5'_1472
REMARK  583  A    between atoms: C5'_1472  and  C4'_1473
REMARK  584  A    between atoms: C3'_1475  and  O3'_1476
REMARK  585  A    between atoms: O3'_1476  and  P_1488
REMARK  586  A    between atoms: C2'_1477  and  O2'_1478
REMARK  587  A    between atoms: C1'_1479  and  N1_1480
REMARK  588  A    between atoms: P_1488  and  OP2_1490
REMARK  589  A    between atoms: P_1488  and  O5'_1491
REMARK  590  A    between atoms: O5'_1491  and  C5'_1492
REMARK  591  A    between atoms: C5'_1492  and  C4'_1493
REMARK  592  A    between atoms: C3'_1495  and  O3'_1496
REMARK  593  A    between atoms: O3'_1496  and  P_1508
REMARK  594  A    between atoms: C2'_1497  and  O2'_1498
REMARK  595  A    between atoms: C1'_1499  and  N1_1500
REMARK  596  A    between atoms: P_1508  and  OP2_1510
REMARK  597  A    between atoms: P_1508  and  O5'_1511
REMARK  598  A    between atoms: O5'_1511  and  C5'_1512
REMARK  599  A    between atoms: C5'_1512  and  C4'_1513
REMARK  600  A    between atoms: C3'_1515  and  O3'_1516
REMARK  601  A    between atoms: O3'_1516  and  P_1528
REMARK  602  A    between atoms: C2'_1517  and  O2'_1518
REMARK  603  A    between atoms: C1'_1519  and  N1_1520
REMARK  604  A    between atoms: P_1528  and  OP1_1529
REMARK  605  A    between atoms: P_1528  and  O5'_1531
REMARK  606  A    between atoms: O5'_1531  and  C5'_1532
REMARK  607  A    between atoms: C5'_1532  and  C4'_1533
REMARK  608  A    between atoms: C3'_1535  and  O3'_1536
REMARK  609  A    between atoms: O3'_1536  and  P_1548
REMARK  610  A    between atoms: C2'_1537  and  O2'_1538
REMARK  611  A    between atoms: C1'_1539  and  N1_1540
REMARK  612  A    between atoms: P_1548  and  OP1_1549
REMARK  613  A    between atoms: P_1548  and  O5'_1551
REMARK  614  A    between atoms: O5'_1551  and  C5'_1552
REMARK  615  A    between atoms: C5'_1552  and  C4'_1553
REMARK  616  A    between atoms: C3'_1555  and  O3'_1556
REMARK  617  A    between atoms: O3'_1556  and  P_1568
REMARK  618  A    between atoms: C2'_1557  and  O2'_1558
REMARK  619  A    between atoms: C1'_1559  and  N1_1560
REMARK  620  A    between atoms: P_1568  and  OP2_1570
REMARK  621  A    between atoms: P_1568  and  O5'_1571
REMARK  622  A    between atoms: O5'_1571  and  C5'_1572
REMARK  623  A    between atoms: C5'_1572  and  C4'_1573
REMARK  624  A    between atoms: C3'_1575  and  O3'_1576
REMARK  625  A    between atoms: C2'_1577  and  O2'_1578
REMARK  626  A    between atoms: C1'_1579  and  N9_1580
REMARK  627  A    between atoms: C6_1584  and  N6_1585
REMARK                            x       y       z     vdW  Elec       q    Type
REMARK                         _______ _______ _______ _____ _____    ______ ____
ROOT
ATOM      1  C5  A   B  67       3.903  12.927 -12.880  0.00  0.00    +0.000 A 
ATOM      2  C6  A   B  67       3.412  14.195 -12.527  0.00  0.00    +0.000 A 
ATOM      3  N6  A   B  67       3.821  14.879 -11.445  0.00  0.00    +0.000 N 
ATOM      4  N1  A   B  67       2.477  14.745 -13.332  0.00  0.00    +0.000 NA
ATOM      5  C2  A   B  67       2.074  14.062 -14.410  0.00  0.00    +0.000 A 
ATOM      6  N3  A   B  67       2.458  12.867 -14.844  0.00  0.00    +0.000 NA
ATOM      7  C4  A   B  67       3.384  12.344 -14.021  0.00  0.00    +0.000 A 
ATOM      8  H   A   B  67       3.439  15.765 -11.249  0.00  0.00    +0.000 HD
ATOM      9  H   A   B  67       4.502  14.494 -10.848  0.00  0.00    +0.000 HD
ENDROOT
TORSDOF 0
