REMARK  Name = /storage/kiran-stuff/aaRS/phase2/energy_scoring/vina_182jobs/anc_prors_edit_HIS_HIS/ligand.h.pdb
REMARK  5 active torsions:
REMARK  status: ('A' for Active; 'I' for Inactive)
REMARK    1  A    between atoms: N_1  and  CA_2
REMARK    2  A    between atoms: CA_2  and  C_3
REMARK    3  A    between atoms: CA_2  and  CB_5
REMARK    4  A    between atoms: C_3  and  OXT_11
REMARK    5  A    between atoms: CB_5  and  CG_6
REMARK                            x       y       z     vdW  Elec       q    Type
REMARK                         _______ _______ _______ _____ _____    ______ ____
ROOT
ATOM      1  CA  HIS B   1      -4.876  -4.966 -24.798  0.00  0.00    +0.000 C 
ENDROOT
BRANCH   1   2
ATOM      2  N   HIS B   1      -5.323  -5.010 -23.398  0.00  0.00    +0.000 NA
ATOM      3  H   HIS B   1      -6.230  -4.553 -23.316  0.00  0.00    +0.000 HD
ATOM      4  H   HIS B   1      -4.644  -4.527 -22.809  0.00  0.00    +0.000 HD
ENDBRANCH   1   2
BRANCH   1   5
ATOM      5  C   HIS B   1      -5.924  -5.626 -25.686  0.00  0.00    +0.000 C 
ATOM      6  O   HIS B   1      -6.854  -4.955 -26.136  0.00  0.00    +0.000 OA
BRANCH   5   7
ATOM      7  OXT HIS B   1      -5.851  -6.843 -25.925  0.00  0.00    +0.000 OA
ATOM      8  H   HIS B   1      -5.141  -7.346 -25.578  0.00  0.00    +0.000 HD
ENDBRANCH   5   7
ENDBRANCH   1   5
BRANCH   1   9
ATOM      9  CB  HIS B   1      -3.528  -5.639 -24.951  0.00  0.00    +0.000 C 
BRANCH   9  10
ATOM     10  CG  HIS B   1      -2.511  -5.218 -23.931  0.00  0.00    +0.000 C 
ATOM     11  ND1 HIS B   1      -2.574  -4.089 -23.220  0.00  0.00    +0.000 NA
ATOM     12  CD2 HIS B   1      -1.390  -5.863 -23.550  0.00  0.00    +0.000 C 
ATOM     13  CE1 HIS B   1      -1.524  -4.017 -22.414  0.00  0.00    +0.000 C 
ATOM     14  NE2 HIS B   1      -0.788  -5.113 -22.604  0.00  0.00    +0.000 NA
ENDBRANCH   9  10
ENDBRANCH   1   9
TORSDOF 5
