REMARK  Name = /storage/kiran-stuff/aaRS/phase2/energy_scoring/vina_182jobs/anc_prors_edit_HIS_HIS/ligand.h.pdb
REMARK  5 active torsions:
REMARK  status: ('A' for Active; 'I' for Inactive)
REMARK    1  A    between atoms: N_1  and  CA_2
REMARK    2  A    between atoms: CA_2  and  C_3
REMARK    3  A    between atoms: CA_2  and  CB_5
REMARK    4  A    between atoms: C_3  and  OXT_11
REMARK    5  A    between atoms: CB_5  and  CG_6
REMARK                            x       y       z     vdW  Elec       q    Type
REMARK                         _______ _______ _______ _____ _____    ______ ____
ROOT
ATOM      1  CA  HIS B   1      -5.162  -4.980 -24.196  0.00  0.00    +0.000 C 
ENDROOT
BRANCH   1   2
ATOM      2  N   HIS B   1      -5.527  -4.857 -22.777  0.00  0.00    +0.000 NA
ATOM      3  H   HIS B   1      -6.395  -4.328 -22.694  0.00  0.00    +0.000 HD
ATOM      4  H   HIS B   1      -4.783  -4.371 -22.276  0.00  0.00    +0.000 HD
ENDBRANCH   1   2
BRANCH   1   5
ATOM      5  C   HIS B   1      -6.304  -5.643 -24.957  0.00  0.00    +0.000 C 
ATOM      6  O   HIS B   1      -7.203  -4.950 -25.437  0.00  0.00    +0.000 OA
BRANCH   5   7
ATOM      7  OXT HIS B   1      -6.337  -6.880 -25.063  0.00  0.00    +0.000 OA
ATOM      8  H   HIS B   1      -5.650  -7.400 -24.695  0.00  0.00    +0.000 HD
ENDBRANCH   5   7
ENDBRANCH   1   5
BRANCH   1   9
ATOM      9  CB  HIS B   1      -3.875  -5.762 -24.351  0.00  0.00    +0.000 C 
BRANCH   9  10
ATOM     10  CG  HIS B   1      -2.718  -5.204 -23.575  0.00  0.00    +0.000 C 
ATOM     11  ND1 HIS B   1      -2.591  -3.922 -23.224  0.00  0.00    +0.000 NA
ATOM     12  CD2 HIS B   1      -1.635  -5.853 -23.103  0.00  0.00    +0.000 C 
ATOM     13  CE1 HIS B   1      -1.460  -3.760 -22.552  0.00  0.00    +0.000 C 
ATOM     14  NE2 HIS B   1      -0.863  -4.950 -22.465  0.00  0.00    +0.000 NA
ENDBRANCH   9  10
ENDBRANCH   1   9
TORSDOF 5
