REMARK  Name = /storage/kiran-stuff/aaRS/phase2/energy_scoring/vina_182jobs/proRS_LUCA_Thr_THR/ligand.h.pdb
REMARK  6 active torsions:
REMARK  status: ('A' for Active; 'I' for Inactive)
REMARK    1  A    between atoms: N_1  and  CA_2
REMARK    2  A    between atoms: CA_2  and  C_3
REMARK    3  A    between atoms: CA_2  and  CB_5
REMARK    4  A    between atoms: C_3  and  OXT_8
REMARK    5  A    between atoms: CB_5  and  OG1_6
REMARK    6  A    between atoms: CB_5  and  CG2_7
REMARK                            x       y       z     vdW  Elec       q    Type
REMARK                         _______ _______ _______ _____ _____    ______ ____
ROOT
ATOM      1  CA  THR L   1     -21.809  23.454 -22.277  0.00  0.00    +0.000 C 
ENDROOT
BRANCH   1   2
ATOM      2  N   THR L   1     -21.748  23.423 -23.739  0.00  0.00    +0.000 NA
ATOM      3  H   THR L   1     -22.677  23.599 -24.122  0.00  0.00    +0.000 HD
ATOM      4  H   THR L   1     -21.422  22.507 -24.046  0.00  0.00    +0.000 HD
ENDBRANCH   1   2
BRANCH   1   5
ATOM      5  C   THR L   1     -20.469  23.201 -21.644  0.00  0.00    +0.000 C 
ATOM      6  O   THR L   1     -19.578  22.647 -22.285  0.00  0.00    +0.000 OA
BRANCH   5   7
ATOM      7  OXT THR L   1     -20.311  23.564 -20.448  0.00  0.00    +0.000 OA
ATOM      8  H   THR L   1     -21.012  23.984 -19.989  0.00  0.00    +0.000 HD
ENDBRANCH   5   7
ENDBRANCH   1   5
BRANCH   1   9
ATOM      9  CB  THR L   1     -22.795  22.406 -21.805  0.00  0.00    +0.000 C 
ATOM     10  CG2 THR L   1     -24.167  22.686 -22.329  0.00  0.00    +0.000 C 
BRANCH   9  11
ATOM     11  OG1 THR L   1     -22.332  21.147 -22.246  0.00  0.00    +0.000 OA
ATOM     12  H   THR L   1     -22.274  21.145 -23.214  0.00  0.00    +0.000 HD
ENDBRANCH   9  11
ENDBRANCH   1   9
TORSDOF 5
