REMARK  Name = /storage/kiran-stuff/aaRS/phase2/energy_scoring/vina_182jobs/proRS_LUCA_Thr_THR/ligand.h.pdb
REMARK  311 active torsions:
REMARK  status: ('A' for Active; 'I' for Inactive)
REMARK    1  A    between atoms: OP3_1  and  P_2
REMARK    2  A    between atoms: OP3_1  and  OP2_4
REMARK    3  A    between atoms: P_2  and  OP1_3
REMARK    4  A    between atoms: P_2  and  O5'_5
REMARK    5  A    between atoms: O5'_5  and  C5'_6
REMARK    6  A    between atoms: C5'_6  and  C4'_7
REMARK    7  A    between atoms: C3'_9  and  O3'_10
REMARK    8  A    between atoms: O3'_10  and  P_22
REMARK    9  A    between atoms: C2'_11  and  O2'_12
REMARK   10  A    between atoms: C1'_13  and  N1_14
REMARK   11  A    between atoms: P_22  and  OP1_23
REMARK   12  A    between atoms: P_22  and  O5'_25
REMARK   13  A    between atoms: O5'_25  and  C5'_26
REMARK   14  A    between atoms: C5'_26  and  C4'_27
REMARK   15  A    between atoms: C3'_29  and  O3'_30
REMARK   16  A    between atoms: O3'_30  and  P_42
REMARK   17  A    between atoms: C2'_31  and  O2'_32
REMARK   18  A    between atoms: C1'_33  and  N1_34
REMARK   19  A    between atoms: P_42  and  OP2_44
REMARK   20  A    between atoms: P_42  and  O5'_45
REMARK   21  A    between atoms: O5'_45  and  C5'_46
REMARK   22  A    between atoms: C5'_46  and  C4'_47
REMARK   23  A    between atoms: C3'_49  and  O3'_50
REMARK   24  A    between atoms: O3'_50  and  P_64
REMARK   25  A    between atoms: C2'_51  and  O2'_52
REMARK   26  A    between atoms: C1'_53  and  N9_54
REMARK   27  A    between atoms: P_64  and  OP2_66
REMARK   28  A    between atoms: P_64  and  O5'_67
REMARK   29  A    between atoms: O5'_67  and  C5'_68
REMARK   30  A    between atoms: C5'_68  and  C4'_69
REMARK   31  A    between atoms: C3'_71  and  O3'_72
REMARK   32  A    between atoms: O3'_72  and  P_86
REMARK   33  A    between atoms: C2'_73  and  O2'_74
REMARK   34  A    between atoms: C1'_75  and  N9_76
REMARK   35  A    between atoms: P_86  and  OP2_88
REMARK   36  A    between atoms: P_86  and  O5'_89
REMARK   37  A    between atoms: O5'_89  and  C5'_90
REMARK   38  A    between atoms: C5'_90  and  C4'_91
REMARK   39  A    between atoms: C1'_97  and  N1_98
REMARK   40  A    between atoms: P_106  and  OP1_107
REMARK   41  A    between atoms: C2'_115  and  O2'_116
REMARK   42  A    between atoms: C1'_117  and  N9_118
REMARK   43  A    between atoms: C6_122  and  N6_123
REMARK   44  A    between atoms: P_128  and  OP1_129
REMARK   45  A    between atoms: C2'_137  and  O2'_138
REMARK   46  A    between atoms: C1'_139  and  N1_140
REMARK   47  A    between atoms: P_148  and  OP1_149
REMARK   48  A    between atoms: C2'_157  and  O2'_158
REMARK   49  A    between atoms: C1'_159  and  N1_160
REMARK   50  A    between atoms: P_168  and  OP1_169
REMARK   51  A    between atoms: C2'_177  and  O2'_178
REMARK   52  A    between atoms: C1'_179  and  N9_180
REMARK   53  A    between atoms: C6_184  and  N6_185
REMARK   54  A    between atoms: P_190  and  OP1_191
REMARK   55  A    between atoms: C2'_199  and  O2'_200
REMARK   56  A    between atoms: C1'_201  and  N1_202
REMARK   57  A    between atoms: P_210  and  OP1_211
REMARK   58  A    between atoms: C2'_219  and  O2'_220
REMARK   59  A    between atoms: C1'_221  and  N1_222
REMARK   60  A    between atoms: P_230  and  OP1_231
REMARK   61  A    between atoms: C2'_239  and  O2'_240
REMARK   62  A    between atoms: C1'_241  and  N1_242
REMARK   63  A    between atoms: P_250  and  OP2_252
REMARK   64  A    between atoms: C2'_259  and  O2'_260
REMARK   65  A    between atoms: C1'_261  and  N1_262
REMARK   66  A    between atoms: P_270  and  OP2_272
REMARK   67  A    between atoms: C2'_279  and  O2'_280
REMARK   68  A    between atoms: C1'_281  and  N9_282
REMARK   69  A    between atoms: P_292  and  OP2_294
REMARK   70  A    between atoms: C2'_301  and  O2'_302
REMARK   71  A    between atoms: C1'_303  and  N1_304
REMARK   72  A    between atoms: P_312  and  OP1_313
REMARK   73  A    between atoms: C2'_321  and  O2'_322
REMARK   74  A    between atoms: C1'_323  and  N1_324
REMARK   75  A    between atoms: P_332  and  OP1_333
REMARK   76  A    between atoms: C2'_341  and  O2'_342
REMARK   77  A    between atoms: C1'_343  and  N1_344
REMARK   78  A    between atoms: P_352  and  OP2_354
REMARK   79  A    between atoms: C2'_361  and  O2'_362
REMARK   80  A    between atoms: C1'_363  and  N9_364
REMARK   81  A    between atoms: P_375  and  OP2_377
REMARK   82  A    between atoms: C2'_384  and  O2'_385
REMARK   83  A    between atoms: C1'_386  and  N9_387
REMARK   84  A    between atoms: P_397  and  OP2_399
REMARK   85  A    between atoms: C2'_406  and  O2'_407
REMARK   86  A    between atoms: C1'_408  and  N9_409
REMARK   87  A    between atoms: P_419  and  OP2_421
REMARK   88  A    between atoms: C2'_428  and  O2'_429
REMARK   89  A    between atoms: C1'_430  and  N9_431
REMARK   90  A    between atoms: P_441  and  OP2_443
REMARK   91  A    between atoms: C2'_450  and  O2'_451
REMARK   92  A    between atoms: C1'_452  and  N1_453
REMARK   93  A    between atoms: P_461  and  OP1_462
REMARK   94  A    between atoms: C2'_470  and  O2'_471
REMARK   95  A    between atoms: C1'_472  and  N1_473
REMARK   96  A    between atoms: P_481  and  OP1_482
REMARK   97  A    between atoms: C2'_490  and  O2'_491
REMARK   98  A    between atoms: C1'_492  and  N1_493
REMARK   99  A    between atoms: P_501  and  OP1_502
REMARK  100  A    between atoms: C2'_510  and  O2'_511
REMARK  101  A    between atoms: C1'_512  and  N1_513
REMARK  102  A    between atoms: P_521  and  OP1_522
REMARK  103  A    between atoms: C2'_530  and  O2'_531
REMARK  104  A    between atoms: C1'_532  and  N1_533
REMARK  105  A    between atoms: P_541  and  OP2_543
REMARK  106  A    between atoms: C2'_550  and  O2'_551
REMARK  107  A    between atoms: C1'_552  and  N1_553
REMARK  108  A    between atoms: P_561  and  OP2_563
REMARK  109  A    between atoms: C2'_570  and  O2'_571
REMARK  110  A    between atoms: C1'_572  and  N1_573
REMARK  111  A    between atoms: P_581  and  OP2_583
REMARK  112  A    between atoms: C2'_590  and  O2'_591
REMARK  113  A    between atoms: C1'_592  and  N9_593
REMARK  114  A    between atoms: P_603  and  OP2_605
REMARK  115  A    between atoms: C2'_612  and  O2'_613
REMARK  116  A    between atoms: C1'_614  and  N9_615
REMARK  117  A    between atoms: P_625  and  OP2_627
REMARK  118  A    between atoms: C2'_634  and  O2'_635
REMARK  119  A    between atoms: C1'_636  and  N9_637
REMARK  120  A    between atoms: P_647  and  OP2_649
REMARK  121  A    between atoms: C2'_656  and  O2'_657
REMARK  122  A    between atoms: C1'_658  and  N9_659
REMARK  123  A    between atoms: C6_663  and  N6_664
REMARK  124  A    between atoms: P_669  and  OP1_670
REMARK  125  A    between atoms: C2'_678  and  O2'_679
REMARK  126  A    between atoms: C1'_680  and  N1_681
REMARK  127  A    between atoms: P_689  and  OP1_690
REMARK  128  A    between atoms: C2'_698  and  O2'_699
REMARK  129  A    between atoms: C1'_700  and  N9_701
REMARK  130  A    between atoms: C6_705  and  N6_706
REMARK  131  A    between atoms: P_711  and  OP1_712
REMARK  132  A    between atoms: C2'_720  and  O2'_721
REMARK  133  A    between atoms: C1'_722  and  N9_723
REMARK  134  A    between atoms: C6_727  and  N6_728
REMARK  135  A    between atoms: P_733  and  OP1_734
REMARK  136  A    between atoms: C2'_742  and  O2'_743
REMARK  137  A    between atoms: C1'_744  and  N1_745
REMARK  138  A    between atoms: P_753  and  OP2_755
REMARK  139  A    between atoms: C2'_762  and  O2'_763
REMARK  140  A    between atoms: C1'_764  and  N9_765
REMARK  141  A    between atoms: P_775  and  OP2_777
REMARK  142  A    between atoms: C2'_784  and  O2'_785
REMARK  143  A    between atoms: C1'_786  and  N1_787
REMARK  144  A    between atoms: P_795  and  OP2_797
REMARK  145  A    between atoms: C2'_804  and  O2'_805
REMARK  146  A    between atoms: C1'_806  and  N1_807
REMARK  147  A    between atoms: P_815  and  OP1_816
REMARK  148  A    between atoms: C2'_824  and  O2'_825
REMARK  149  A    between atoms: C1'_826  and  N1_827
REMARK  150  A    between atoms: P_835  and  OP1_836
REMARK  151  A    between atoms: C2'_844  and  O2'_845
REMARK  152  A    between atoms: C1'_846  and  N1_847
REMARK  153  A    between atoms: P_855  and  OP1_856
REMARK  154  A    between atoms: C2'_864  and  O2'_865
REMARK  155  A    between atoms: C1'_866  and  N1_867
REMARK  156  A    between atoms: P_875  and  OP1_876
REMARK  157  A    between atoms: C2'_884  and  O2'_885
REMARK  158  A    between atoms: C1'_886  and  N9_887
REMARK  159  A    between atoms: P_897  and  OP2_899
REMARK  160  A    between atoms: C2'_906  and  O2'_907
REMARK  161  A    between atoms: C1'_908  and  N1_909
REMARK  162  A    between atoms: P_917  and  OP2_919
REMARK  163  A    between atoms: C2'_926  and  O2'_927
REMARK  164  A    between atoms: C1'_928  and  N1_929
REMARK  165  A    between atoms: P_937  and  OP2_939
REMARK  166  A    between atoms: C2'_946  and  O2'_947
REMARK  167  A    between atoms: C1'_948  and  N1_949
REMARK  168  A    between atoms: P_957  and  OP1_958
REMARK  169  A    between atoms: C2'_966  and  O2'_967
REMARK  170  A    between atoms: C1'_968  and  N1_969
REMARK  171  A    between atoms: P_977  and  OP1_978
REMARK  172  A    between atoms: C2'_986  and  O2'_987
REMARK  173  A    between atoms: C1'_988  and  N9_989
REMARK  174  A    between atoms: C6_993  and  N6_994
REMARK  175  A    between atoms: P_999  and  OP1_1000
REMARK  176  A    between atoms: C2'_1008  and  O2'_1009
REMARK  177  A    between atoms: C1'_1010  and  N1_1011
REMARK  178  A    between atoms: P_1019  and  OP1_1020
REMARK  179  A    between atoms: C2'_1028  and  O2'_1029
REMARK  180  A    between atoms: C1'_1030  and  N1_1031
REMARK  181  A    between atoms: P_1039  and  OP1_1040
REMARK  182  A    between atoms: C2'_1048  and  O2'_1049
REMARK  183  A    between atoms: C1'_1050  and  N1_1051
REMARK  184  A    between atoms: P_1059  and  OP1_1060
REMARK  185  A    between atoms: C2'_1068  and  O2'_1069
REMARK  186  A    between atoms: C1'_1070  and  N1_1071
REMARK  187  A    between atoms: P_1079  and  OP2_1081
REMARK  188  A    between atoms: C2'_1088  and  O2'_1089
REMARK  189  A    between atoms: C1'_1090  and  N9_1091
REMARK  190  A    between atoms: P_1101  and  OP2_1103
REMARK  191  A    between atoms: C2'_1110  and  O2'_1111
REMARK  192  A    between atoms: C1'_1112  and  N9_1113
REMARK  193  A    between atoms: P_1123  and  OP2_1125
REMARK  194  A    between atoms: C2'_1132  and  O2'_1133
REMARK  195  A    between atoms: C1'_1134  and  N9_1135
REMARK  196  A    between atoms: P_1145  and  OP2_1147
REMARK  197  A    between atoms: C2'_1154  and  O2'_1155
REMARK  198  A    between atoms: C1'_1156  and  N9_1157
REMARK  199  A    between atoms: P_1167  and  OP2_1169
REMARK  200  A    between atoms: C2'_1176  and  O2'_1177
REMARK  201  A    between atoms: C1'_1178  and  N9_1179
REMARK  202  A    between atoms: P_1189  and  OP1_1190
REMARK  203  A    between atoms: C2'_1198  and  O2'_1199
REMARK  204  A    between atoms: C1'_1200  and  N1_1201
REMARK  205  A    between atoms: P_1209  and  OP1_1210
REMARK  206  A    between atoms: C2'_1218  and  O2'_1219
REMARK  207  A    between atoms: C1'_1220  and  N9_1221
REMARK  208  A    between atoms: P_1231  and  OP1_1232
REMARK  209  A    between atoms: C2'_1240  and  O2'_1241
REMARK  210  A    between atoms: C1'_1242  and  N9_1243
REMARK  211  A    between atoms: P_1254  and  OP1_1255
REMARK  212  A    between atoms: C2'_1263  and  O2'_1264
REMARK  213  A    between atoms: C1'_1265  and  N9_1266
REMARK  214  A    between atoms: C6_1270  and  N6_1271
REMARK  215  A    between atoms: P_1276  and  OP1_1277
REMARK  216  A    between atoms: C2'_1285  and  O2'_1286
REMARK  217  A    between atoms: C1'_1287  and  N1_1288
REMARK  218  A    between atoms: P_1296  and  OP1_1297
REMARK  219  A    between atoms: C2'_1305  and  O2'_1306
REMARK  220  A    between atoms: C1'_1307  and  N1_1308
REMARK  221  A    between atoms: P_1316  and  OP1_1317
REMARK  222  A    between atoms: C2'_1325  and  O2'_1326
REMARK  223  A    between atoms: C1'_1327  and  N9_1328
REMARK  224  A    between atoms: C6_1332  and  N6_1333
REMARK  225  A    between atoms: P_1338  and  OP1_1339
REMARK  226  A    between atoms: C2'_1347  and  O2'_1348
REMARK  227  A    between atoms: C1'_1349  and  N1_1350
REMARK  228  A    between atoms: P_1358  and  OP2_1360
REMARK  229  A    between atoms: C3'_1365  and  O3'_1366
REMARK  230  A    between atoms: O3'_1366  and  P_1380
REMARK  231  A    between atoms: C2'_1367  and  O2'_1368
REMARK  232  A    between atoms: P_1380  and  OP2_1382
REMARK  233  A    between atoms: P_1380  and  O5'_1383
REMARK  234  A    between atoms: O5'_1383  and  C5'_1384
REMARK  235  A    between atoms: C5'_1384  and  C4'_1385
REMARK  236  A    between atoms: C3'_1387  and  O3'_1388
REMARK  237  A    between atoms: O3'_1388  and  P_1402
REMARK  238  A    between atoms: C2'_1389  and  O2'_1390
REMARK  239  A    between atoms: C1'_1391  and  N9_1392
REMARK  240  A    between atoms: P_1402  and  OP2_1404
REMARK  241  A    between atoms: P_1402  and  O5'_1405
REMARK  242  A    between atoms: O5'_1405  and  C5'_1406
REMARK  243  A    between atoms: C5'_1406  and  C4'_1407
REMARK  244  A    between atoms: C3'_1409  and  O3'_1410
REMARK  245  A    between atoms: O3'_1410  and  P_1424
REMARK  246  A    between atoms: C2'_1411  and  O2'_1412
REMARK  247  A    between atoms: C1'_1413  and  N9_1414
REMARK  248  A    between atoms: P_1424  and  OP2_1426
REMARK  249  A    between atoms: P_1424  and  O5'_1427
REMARK  250  A    between atoms: O5'_1427  and  C5'_1428
REMARK  251  A    between atoms: C5'_1428  and  C4'_1429
REMARK  252  A    between atoms: C3'_1431  and  O3'_1432
REMARK  253  A    between atoms: O3'_1432  and  P_1446
REMARK  254  A    between atoms: C2'_1433  and  O2'_1434
REMARK  255  A    between atoms: C1'_1435  and  N9_1436
REMARK  256  A    between atoms: P_1446  and  OP2_1448
REMARK  257  A    between atoms: P_1446  and  O5'_1449
REMARK  258  A    between atoms: O5'_1449  and  C5'_1450
REMARK  259  A    between atoms: C5'_1450  and  C4'_1451
REMARK  260  A    between atoms: C3'_1453  and  O3'_1454
REMARK  261  A    between atoms: O3'_1454  and  P_1468
REMARK  262  A    between atoms: C2'_1455  and  O2'_1456
REMARK  263  A    between atoms: C1'_1457  and  N9_1458
REMARK  264  A    between atoms: P_1468  and  OP2_1470
REMARK  265  A    between atoms: P_1468  and  O5'_1471
REMARK  266  A    between atoms: O5'_1471  and  C5'_1472
REMARK  267  A    between atoms: C5'_1472  and  C4'_1473
REMARK  268  A    between atoms: C3'_1475  and  O3'_1476
REMARK  269  A    between atoms: O3'_1476  and  P_1488
REMARK  270  A    between atoms: C2'_1477  and  O2'_1478
REMARK  271  A    between atoms: C1'_1479  and  N1_1480
REMARK  272  A    between atoms: P_1488  and  OP1_1489
REMARK  273  A    between atoms: P_1488  and  O5'_1491
REMARK  274  A    between atoms: O5'_1491  and  C5'_1492
REMARK  275  A    between atoms: C5'_1492  and  C4'_1493
REMARK  276  A    between atoms: C3'_1495  and  O3'_1496
REMARK  277  A    between atoms: O3'_1496  and  P_1508
REMARK  278  A    between atoms: C2'_1497  and  O2'_1498
REMARK  279  A    between atoms: C1'_1499  and  N1_1500
REMARK  280  A    between atoms: P_1508  and  OP2_1510
REMARK  281  A    between atoms: P_1508  and  O5'_1511
REMARK  282  A    between atoms: O5'_1511  and  C5'_1512
REMARK  283  A    between atoms: C5'_1512  and  C4'_1513
REMARK  284  A    between atoms: C3'_1515  and  O3'_1516
REMARK  285  A    between atoms: O3'_1516  and  P_1528
REMARK  286  A    between atoms: C2'_1517  and  O2'_1518
REMARK  287  A    between atoms: C1'_1519  and  N1_1520
REMARK  288  A    between atoms: P_1528  and  OP2_1530
REMARK  289  A    between atoms: P_1528  and  O5'_1531
REMARK  290  A    between atoms: O5'_1531  and  C5'_1532
REMARK  291  A    between atoms: C5'_1532  and  C4'_1533
REMARK  292  A    between atoms: C3'_1535  and  O3'_1536
REMARK  293  A    between atoms: O3'_1536  and  P_1548
REMARK  294  A    between atoms: C2'_1537  and  O2'_1538
REMARK  295  A    between atoms: C1'_1539  and  N1_1540
REMARK  296  A    between atoms: P_1548  and  OP2_1550
REMARK  297  A    between atoms: P_1548  and  O5'_1551
REMARK  298  A    between atoms: O5'_1551  and  C5'_1552
REMARK  299  A    between atoms: C5'_1552  and  C4'_1553
REMARK  300  A    between atoms: C3'_1555  and  O3'_1556
REMARK  301  A    between atoms: O3'_1556  and  P_1568
REMARK  302  A    between atoms: C2'_1557  and  O2'_1558
REMARK  303  A    between atoms: C1'_1559  and  N1_1560
REMARK  304  A    between atoms: P_1568  and  OP1_1569
REMARK  305  A    between atoms: P_1568  and  O5'_1571
REMARK  306  A    between atoms: O5'_1571  and  C5'_1572
REMARK  307  A    between atoms: C5'_1572  and  C4'_1573
REMARK  308  A    between atoms: C3'_1575  and  O3'_1576
REMARK  309  A    between atoms: C2'_1577  and  O2'_1578
REMARK  310  A    between atoms: C1'_1579  and  N9_1580
REMARK  311  A    between atoms: C6_1584  and  N6_1585
REMARK                            x       y       z     vdW  Elec       q    Type
REMARK                         _______ _______ _______ _____ _____    ______ ____
ROOT
ATOM      1  C4' U   B   5     -14.814  -9.184  20.465  0.00  0.00    +0.000 C 
ATOM      2  O4' U   B   5     -16.023  -9.972  20.280  0.00  0.00    +0.000 OA
ATOM      3  C3' U   B   5     -14.646  -9.125  21.964  0.00  0.00    +0.000 C 
ATOM      4  O3' U   B   5     -13.805  -8.057  22.384  0.00  0.00    +0.000 OA
ATOM      5  C2' U   B   5     -16.087  -8.986  22.441  0.00  0.00    +0.000 C 
ATOM      6  O2' U   B   5     -16.568  -7.668  22.286  0.00  0.00    +0.000 OA
ATOM      7  C1' U   B   5     -16.817  -9.903  21.450  0.00  0.00    +0.000 C 
ATOM      8  P   A   B   6     -12.912  -8.215  23.702  0.00  0.00    +0.000 P 
ATOM      9  OP2 A   B   6     -12.324  -9.571  23.705  0.00  0.00    +0.000 OA
ATOM     10  O5' A   B   6     -13.984  -8.148  24.882  0.00  0.00    +0.000 OA
ATOM     11  C5' A   B   6     -14.734  -6.960  25.108  0.00  0.00    +0.000 C 
ATOM     12  C4' A   B   6     -15.807  -7.187  26.145  0.00  0.00    +0.000 C 
ATOM     13  O4' A   B   6     -16.782  -8.150  25.657  0.00  0.00    +0.000 OA
ATOM     14  C3' A   B   6     -15.349  -7.777  27.460  0.00  0.00    +0.000 C 
ATOM     15  O3' A   B   6     -14.746  -6.810  28.310  0.00  0.00    +0.000 OA
ATOM     16  C2' A   B   6     -16.642  -8.352  28.020  0.00  0.00    +0.000 C 
ATOM     17  C1' A   B   6     -17.317  -8.876  26.747  0.00  0.00    +0.000 C 
ATOM     18  P   C   B   7     -13.553  -7.241  29.283  0.00  0.00    +0.000 P 
ATOM     19  OP2 C   B   7     -12.618  -8.100  28.516  0.00  0.00    +0.000 OA
ATOM     20  O5' C   B   7     -14.257  -8.149  30.387  0.00  0.00    +0.000 OA
ATOM     21  C5' C   B   7     -15.285  -7.622  31.216  0.00  0.00    +0.000 C 
ATOM     22  C4' C   B   7     -15.875  -8.685  32.109  0.00  0.00    +0.000 C 
ATOM     23  O4' C   B   7     -16.591  -9.670  31.316  0.00  0.00    +0.000 OA
ATOM     24  C3' C   B   7     -14.889  -9.506  32.902  0.00  0.00    +0.000 C 
ATOM     25  O3' C   B   7     -14.414  -8.809  34.049  0.00  0.00    +0.000 OA
ATOM     26  C2' C   B   7     -15.704 -10.752  33.246  0.00  0.00    +0.000 C 
ATOM     27  C1' C   B   7     -16.558 -10.921  31.981  0.00  0.00    +0.000 C 
ATOM     28  P   U   B   8     -12.857  -8.753  34.396  0.00  0.00    +0.000 P 
ATOM     29  OP2 U   B   8     -12.094  -8.990  33.147  0.00  0.00    +0.000 OA
ATOM     30  O5' U   B   8     -12.646 -10.015  35.342  0.00  0.00    +0.000 OA
ATOM     31  C5' U   B   8     -13.374 -10.153  36.554  0.00  0.00    +0.000 C 
ATOM     32  C4' U   B   8     -13.389 -11.588  37.018  0.00  0.00    +0.000 C 
ATOM     33  O4' U   B   8     -14.131 -12.396  36.066  0.00  0.00    +0.000 OA
ATOM     34  C3' U   B   8     -12.043 -12.262  37.114  0.00  0.00    +0.000 C 
ATOM     35  O3' U   B   8     -11.385 -11.950  38.336  0.00  0.00    +0.000 OA
ATOM     36  C2' U   B   8     -12.397 -13.741  36.987  0.00  0.00    +0.000 C 
ATOM     37  C1' U   B   8     -13.590 -13.700  36.020  0.00  0.00    +0.000 C 
ATOM     38  P   A   B   9      -9.851 -11.542  38.376  0.00  0.00    +0.000 P 
ATOM     39  OP2 A   B   9      -9.498 -10.867  37.102  0.00  0.00    +0.000 OA
ATOM     40  O5' A   B   9      -9.107 -12.948  38.418  0.00  0.00    +0.000 OA
ATOM     41  C5' A   B   9      -9.400 -13.904  39.430  0.00  0.00    +0.000 C 
ATOM     42  C4' A   B   9      -8.507 -15.114  39.306  0.00  0.00    +0.000 C 
ATOM     43  O4' A   B   9      -8.704 -15.731  38.005  0.00  0.00    +0.000 OA
ATOM     44  C3' A   B   9      -7.016 -14.837  39.356  0.00  0.00    +0.000 C 
ATOM     45  O3' A   B   9      -6.534 -14.685  40.687  0.00  0.00    +0.000 OA
ATOM     46  C2' A   B   9      -6.439 -16.040  38.634  0.00  0.00    +0.000 C 
ATOM     47  C1' A   B   9      -7.470 -16.231  37.524  0.00  0.00    +0.000 C 
ATOM     48  P   U   B  10      -5.380 -13.643  41.015  0.00  0.00    +0.000 P 
ATOM     49  OP2 U   B  10      -5.671 -12.375  40.294  0.00  0.00    +0.000 OA
ATOM     50  O5' U   B  10      -4.095 -14.307  40.345  0.00  0.00    +0.000 OA
ATOM     51  C5' U   B  10      -3.610 -15.572  40.778  0.00  0.00    +0.000 C 
ATOM     52  C4' U   B  10      -2.549 -16.115  39.848  0.00  0.00    +0.000 C 
ATOM     53  O4' U   B  10      -3.081 -16.224  38.499  0.00  0.00    +0.000 OA
ATOM     54  C3' U   B  10      -1.310 -15.265  39.679  0.00  0.00    +0.000 C 
ATOM     55  O3' U   B  10      -0.397 -15.404  40.760  0.00  0.00    +0.000 OA
ATOM     56  C2' U   B  10      -0.752 -15.772  38.356  0.00  0.00    +0.000 C 
ATOM     57  C1' U   B  10      -2.043 -16.006  37.561  0.00  0.00    +0.000 C 
ATOM     58  P   U   B  11       0.579 -14.199  41.151  0.00  0.00    +0.000 P 
ATOM     59  OP2 U   B  11      -0.180 -12.921  41.057  0.00  0.00    +0.000 OA
ATOM     60  O5' U   B  11       1.658 -14.218  39.978  0.00  0.00    +0.000 OA
ATOM     61  C5' U   B  11       2.505 -15.342  39.776  0.00  0.00    +0.000 C 
ATOM     62  C4' U   B  11       3.360 -15.173  38.544  0.00  0.00    +0.000 C 
ATOM     63  O4' U   B  11       2.518 -15.105  37.360  0.00  0.00    +0.000 OA
ATOM     64  C3' U   B  11       4.179 -13.902  38.478  0.00  0.00    +0.000 C 
ATOM     65  O3' U   B  11       5.364 -13.978  39.257  0.00  0.00    +0.000 OA
ATOM     66  C2' U   B  11       4.444 -13.763  36.986  0.00  0.00    +0.000 C 
ATOM     67  C1' U   B  11       3.113 -14.250  36.400  0.00  0.00    +0.000 C 
ATOM     68  P   U   B  12       5.960 -12.660  39.942  0.00  0.00    +0.000 P 
ATOM     69  OP2 U   B  12       4.832 -11.815  40.415  0.00  0.00    +0.000 OA
ATOM     70  O5' U   B  12       6.654 -11.909  38.718  0.00  0.00    +0.000 OA
ATOM     71  C5' U   B  12       7.726 -12.509  38.007  0.00  0.00    +0.000 C 
ATOM     72  C4' U   B  12       8.088 -11.715  36.778  0.00  0.00    +0.000 C 
ATOM     73  O4' U   B  12       6.985 -11.735  35.828  0.00  0.00    +0.000 OA
ATOM     74  C3' U   B  12       8.346 -10.239  36.995  0.00  0.00    +0.000 C 
ATOM     75  O3' U   B  12       9.638  -9.978  37.521  0.00  0.00    +0.000 OA
ATOM     76  C2' U   B  12       8.135  -9.669  35.598  0.00  0.00    +0.000 C 
ATOM     77  C1' U   B  12       6.954 -10.517  35.109  0.00  0.00    +0.000 C 
ATOM     78  P   C   B  13       9.856  -8.719  38.486  0.00  0.00    +0.000 P 
ATOM     79  OP1 C   B  13      11.224  -8.810  39.046  0.00  0.00    +0.000 OA
ATOM     80  O5' C   B  13       9.805  -7.477  37.488  0.00  0.00    +0.000 OA
ATOM     81  C5' C   B  13      10.764  -7.348  36.450  0.00  0.00    +0.000 C 
ATOM     82  C4' C   B  13      10.391  -6.244  35.493  0.00  0.00    +0.000 C 
ATOM     83  O4' C   B  13       9.149  -6.567  34.809  0.00  0.00    +0.000 OA
ATOM     84  C3' C   B  13      10.112  -4.888  36.105  0.00  0.00    +0.000 C 
ATOM     85  O3' C   B  13      11.289  -4.186  36.468  0.00  0.00    +0.000 OA
ATOM     86  C2' C   B  13       9.316  -4.208  35.000  0.00  0.00    +0.000 C 
ATOM     87  C1' C   B  13       8.453  -5.370  34.502  0.00  0.00    +0.000 C 
ATOM     88  P   A   B  14      11.258  -3.210  37.744  0.00  0.00    +0.000 P 
ATOM     89  OP1 A   B  14      12.620  -2.673  37.945  0.00  0.00    +0.000 OA
ATOM     90  O5' A   B  14      10.308  -2.024  37.267  0.00  0.00    +0.000 OA
ATOM     91  C5' A   B  14      10.687  -1.192  36.186  0.00  0.00    +0.000 C 
ATOM     92  C4' A   B  14       9.570  -0.260  35.795  0.00  0.00    +0.000 C 
ATOM     93  O4' A   B  14       8.422  -1.017  35.335  0.00  0.00    +0.000 OA
ATOM     94  C3' A   B  14       8.999   0.598  36.902  0.00  0.00    +0.000 C 
ATOM     95  O3' A   B  14       9.817   1.707  37.219  0.00  0.00    +0.000 OA
ATOM     96  C2' A   B  14       7.645   0.984  36.331  0.00  0.00    +0.000 C 
ATOM     97  C1' A   B  14       7.234  -0.321  35.659  0.00  0.00    +0.000 C 
ATOM     98  P   U   B  15       9.994   2.146  38.736  0.00  0.00    +0.000 P 
ATOM     99  OP1 U   B  15      10.701   3.449  38.754  0.00  0.00    +0.000 OA
ATOM    100  O5' U   B  15       8.493   2.349  39.221  0.00  0.00    +0.000 OA
ATOM    101  C5' U   B  15       8.215   3.003  40.448  0.00  0.00    +0.000 C 
ATOM    102  C4' U   B  15       7.355   4.225  40.205  0.00  0.00    +0.000 C 
ATOM    103  O4' U   B  15       8.002   5.083  39.247  0.00  0.00    +0.000 OA
ATOM    104  C3' U   B  15       5.984   3.945  39.630  0.00  0.00    +0.000 C 
ATOM    105  O3' U   B  15       5.056   3.733  40.679  0.00  0.00    +0.000 OA
ATOM    106  C2' U   B  15       5.656   5.203  38.840  0.00  0.00    +0.000 C 
ATOM    107  C1' U   B  15       7.032   5.793  38.511  0.00  0.00    +0.000 C 
ATOM    108  P   C   B  16       4.069   2.561  40.742  0.00  0.00    +0.000 P 
ATOM    109  OP2 C   B  16       3.993   1.865  39.439  0.00  0.00    +0.000 OA
ATOM    110  O5' C   B  16       2.678   3.296  41.009  0.00  0.00    +0.000 OA
ATOM    111  C5' C   B  16       1.740   3.489  39.962  0.00  0.00    +0.000 C 
ATOM    112  C4' C   B  16       1.107   4.858  40.059  0.00  0.00    +0.000 C 
ATOM    113  O4' C   B  16       2.143   5.882  39.966  0.00  0.00    +0.000 OA
ATOM    114  C3' C   B  16       0.141   5.183  38.943  0.00  0.00    +0.000 C 
ATOM    115  O3' C   B  16      -1.174   4.716  39.226  0.00  0.00    +0.000 OA
ATOM    116  C2' C   B  16       0.225   6.698  38.854  0.00  0.00    +0.000 C 
ATOM    117  C1' C   B  16       1.706   6.943  39.155  0.00  0.00    +0.000 C 
ATOM    118  P   C   B  17      -1.883   3.684  38.277  0.00  0.00    +0.000 P 
ATOM    119  OP2 C   B  17      -1.055   2.452  38.217  0.00  0.00    +0.000 OA
ATOM    120  O5' C   B  17      -1.827   4.386  36.852  0.00  0.00    +0.000 OA
ATOM    121  C5' C   B  17      -2.602   5.548  36.572  0.00  0.00    +0.000 C 
ATOM    122  C4' C   B  17      -2.289   6.081  35.198  0.00  0.00    +0.000 C 
ATOM    123  O4' C   B  17      -0.911   6.544  35.153  0.00  0.00    +0.000 OA
ATOM    124  C3' C   B  17      -2.376   5.072  34.072  0.00  0.00    +0.000 C 
ATOM    125  O3' C   B  17      -3.712   4.866  33.619  0.00  0.00    +0.000 OA
ATOM    126  C2' C   B  17      -1.469   5.687  33.015  0.00  0.00    +0.000 C 
ATOM    127  C1' C   B  17      -0.354   6.277  33.882  0.00  0.00    +0.000 C 
ATOM    128  P   G   B  18      -4.324   3.417  33.550  0.00  0.00    +0.000 P 
ATOM    129  OP1 G   B  18      -5.410   3.451  32.544  0.00  0.00    +0.000 OA
ATOM    130  O5' G   B  18      -3.128   2.531  32.982  0.00  0.00    +0.000 OA
ATOM    131  C5' G   B  18      -2.947   2.350  31.584  0.00  0.00    +0.000 C 
ATOM    132  C4' G   B  18      -1.489   2.226  31.227  0.00  0.00    +0.000 C 
ATOM    133  O4' G   B  18      -0.662   2.281  32.423  0.00  0.00    +0.000 OA
ATOM    134  C3' G   B  18      -1.069   0.933  30.561  0.00  0.00    +0.000 C 
ATOM    135  O3' G   B  18      -1.390   0.910  29.175  0.00  0.00    +0.000 OA
ATOM    136  C2' G   B  18       0.424   0.900  30.848  0.00  0.00    +0.000 C 
ATOM    137  C1' G   B  18       0.473   1.462  32.262  0.00  0.00    +0.000 C 
ATOM    138  P   A   B  19      -1.758  -0.452  28.461  0.00  0.00    +0.000 P 
ATOM    139  OP1 A   B  19      -2.275  -0.129  27.108  0.00  0.00    +0.000 OA
ATOM    140  O5' A   B  19      -0.344  -1.166  28.292  0.00  0.00    +0.000 OA
ATOM    141  C5' A   B  19       0.663  -0.590  27.467  0.00  0.00    +0.000 C 
ATOM    142  C4' A   B  19       1.957  -1.358  27.576  0.00  0.00    +0.000 C 
ATOM    143  O4' A   B  19       2.462  -1.293  28.937  0.00  0.00    +0.000 OA
ATOM    144  C3' A   B  19       1.864  -2.846  27.294  0.00  0.00    +0.000 C 
ATOM    145  O3' A   B  19       1.845  -3.142  25.904  0.00  0.00    +0.000 OA
ATOM    146  C2' A   B  19       3.092  -3.383  28.016  0.00  0.00    +0.000 C 
ATOM    147  C1' A   B  19       3.106  -2.510  29.266  0.00  0.00    +0.000 C 
ATOM    148  P   A   B  20       1.035  -4.394  25.351  0.00  0.00    +0.000 P 
ATOM    149  OP1 A   B  20       1.053  -4.334  23.869  0.00  0.00    +0.000 OA
ATOM    150  O5' A   B  20       1.921  -5.642  25.807  0.00  0.00    +0.000 OA
ATOM    151  C5' A   B  20       3.220  -5.844  25.265  0.00  0.00    +0.000 C 
ATOM    152  C4' A   B  20       4.012  -6.836  26.084  0.00  0.00    +0.000 C 
ATOM    153  O4' A   B  20       4.063  -6.409  27.472  0.00  0.00    +0.000 OA
ATOM    154  C3' A   B  20       3.449  -8.244  26.163  0.00  0.00    +0.000 C 
ATOM    155  O3' A   B  20       3.715  -9.017  25.002  0.00  0.00    +0.000 OA
ATOM    156  C2' A   B  20       4.132  -8.778  27.413  0.00  0.00    +0.000 C 
ATOM    157  C1' A   B  20       4.107  -7.545  28.315  0.00  0.00    +0.000 C 
ATOM    158  P   A   B  21       2.743 -10.202  24.578  0.00  0.00    +0.000 P 
ATOM    159  OP1 A   B  21       3.179 -10.688  23.246  0.00  0.00    +0.000 OA
ATOM    160  O5' A   B  21       3.057 -11.344  25.650  0.00  0.00    +0.000 OA
ATOM    161  C5' A   B  21       4.349 -11.932  25.725  0.00  0.00    +0.000 C 
ATOM    162  C4' A   B  21       4.509 -12.735  26.995  0.00  0.00    +0.000 C 
ATOM    163  O4' A   B  21       4.197 -11.910  28.148  0.00  0.00    +0.000 OA
ATOM    164  C3' A   B  21       3.593 -13.934  27.145  0.00  0.00    +0.000 C 
ATOM    165  O3' A   B  21       4.056 -15.062  26.414  0.00  0.00    +0.000 OA
ATOM    166  C2' A   B  21       3.602 -14.152  28.650  0.00  0.00    +0.000 C 
ATOM    167  C1' A   B  21       3.637 -12.713  29.169  0.00  0.00    +0.000 C 
ATOM    168  P   C   B  22       3.015 -16.120  25.837  0.00  0.00    +0.000 P 
ATOM    169  OP1 C   B  22       3.757 -17.016  24.918  0.00  0.00    +0.000 OA
ATOM    170  O5' C   B  22       2.597 -16.953  27.127  0.00  0.00    +0.000 OA
ATOM    171  C5' C   B  22       3.570 -17.615  27.935  0.00  0.00    +0.000 C 
ATOM    172  C4' C   B  22       2.984 -18.015  29.269  0.00  0.00    +0.000 C 
ATOM    173  O4' C   B  22       2.417 -16.857  29.922  0.00  0.00    +0.000 OA
ATOM    174  C3' C   B  22       1.844 -19.004  29.208  0.00  0.00    +0.000 C 
ATOM    175  O3' C   B  22       2.334 -20.335  29.148  0.00  0.00    +0.000 OA
ATOM    176  C2' C   B  22       1.075 -18.739  30.497  0.00  0.00    +0.000 C 
ATOM    177  C1' C   B  22       1.319 -17.242  30.719  0.00  0.00    +0.000 C 
ATOM    178  P   U   B  23       2.187 -21.233  27.891  0.00  0.00    +0.000 P 
ATOM    179  OP2 U   B  23       1.613 -20.441  26.763  0.00  0.00    +0.000 OA
ATOM    180  O5' U   B  23       1.084 -22.276  28.369  0.00  0.00    +0.000 OA
ATOM    181  C5' U   B  23       1.001 -22.705  29.728  0.00  0.00    +0.000 C 
ATOM    182  C4' U   B  23       0.456 -24.097  29.815  0.00  0.00    +0.000 C 
ATOM    183  O4' U   B  23      -0.856 -24.144  29.202  0.00  0.00    +0.000 OA
ATOM    184  C3' U   B  23       1.250 -25.151  29.078  0.00  0.00    +0.000 C 
ATOM    185  O3' U   B  23       2.361 -25.609  29.843  0.00  0.00    +0.000 OA
ATOM    186  C2' U   B  23       0.204 -26.226  28.815  0.00  0.00    +0.000 C 
ATOM    187  C1' U   B  23      -1.039 -25.379  28.548  0.00  0.00    +0.000 C 
ATOM    188  P   U   B  24       3.826 -25.738  29.181  0.00  0.00    +0.000 P 
ATOM    189  OP2 U   B  24       3.904 -24.810  28.022  0.00  0.00    +0.000 OA
ATOM    190  O5' U   B  24       3.809 -27.227  28.632  0.00  0.00    +0.000 OA
ATOM    191  C5' U   B  24       3.534 -28.328  29.493  0.00  0.00    +0.000 C 
ATOM    192  C4' U   B  24       2.912 -29.473  28.736  0.00  0.00    +0.000 C 
ATOM    193  O4' U   B  24       1.643 -29.052  28.166  0.00  0.00    +0.000 OA
ATOM    194  C3' U   B  24       3.691 -29.982  27.544  0.00  0.00    +0.000 C 
ATOM    195  O3' U   B  24       4.758 -30.842  27.918  0.00  0.00    +0.000 OA
ATOM    196  C2' U   B  24       2.608 -30.670  26.726  0.00  0.00    +0.000 C 
ATOM    197  C1' U   B  24       1.421 -29.726  26.945  0.00  0.00    +0.000 C 
ATOM    198  P   U   B  25       6.076 -30.936  27.013  0.00  0.00    +0.000 P 
ATOM    199  OP2 U   B  25       6.369 -29.584  26.460  0.00  0.00    +0.000 OA
ATOM    200  O5' U   B  25       5.597 -31.872  25.817  0.00  0.00    +0.000 OA
ATOM    201  C5' U   B  25       5.147 -33.199  26.060  0.00  0.00    +0.000 C 
ATOM    202  C4' U   B  25       4.419 -33.769  24.867  0.00  0.00    +0.000 C 
ATOM    203  O4' U   B  25       3.240 -32.967  24.579  0.00  0.00    +0.000 OA
ATOM    204  C3' U   B  25       5.181 -33.771  23.559  0.00  0.00    +0.000 C 
ATOM    205  O3' U   B  25       6.120 -34.834  23.476  0.00  0.00    +0.000 OA
ATOM    206  C2' U   B  25       4.054 -33.872  22.540  0.00  0.00    +0.000 C 
ATOM    207  C1' U   B  25       2.982 -32.984  23.186  0.00  0.00    +0.000 C 
ATOM    208  P   U   B  26       7.463 -34.664  22.608  0.00  0.00    +0.000 P 
ATOM    209  OP2 U   B  26       7.964 -33.272  22.775  0.00  0.00    +0.000 OA
ATOM    210  O5' U   B  26       6.939 -34.827  21.112  0.00  0.00    +0.000 OA
ATOM    211  C5' U   B  26       6.311 -36.029  20.681  0.00  0.00    +0.000 C 
ATOM    212  C4' U   B  26       5.605 -35.845  19.359  0.00  0.00    +0.000 C 
ATOM    213  O4' U   B  26       4.577 -34.823  19.489  0.00  0.00    +0.000 OA
ATOM    214  C3' U   B  26       6.461 -35.354  18.211  0.00  0.00    +0.000 C 
ATOM    215  O3' U   B  26       7.234 -36.390  17.622  0.00  0.00    +0.000 OA
ATOM    216  C2' U   B  26       5.418 -34.768  17.268  0.00  0.00    +0.000 C 
ATOM    217  C1' U   B  26       4.437 -34.131  18.262  0.00  0.00    +0.000 C 
ATOM    218  P   U   B  27       8.662 -36.062  16.946  0.00  0.00    +0.000 P 
ATOM    219  OP1 U   B  27       9.330 -37.350  16.642  0.00  0.00    +0.000 OA
ATOM    220  O5' U   B  27       8.258 -35.377  15.563  0.00  0.00    +0.000 OA
ATOM    221  C5' U   B  27       7.507 -36.086  14.584  0.00  0.00    +0.000 C 
ATOM    222  C4' U   B  27       6.972 -35.159  13.519  0.00  0.00    +0.000 C 
ATOM    223  O4' U   B  27       6.113 -34.154  14.128  0.00  0.00    +0.000 OA
ATOM    224  C3' U   B  27       8.002 -34.346  12.764  0.00  0.00    +0.000 C 
ATOM    225  O3' U   B  27       8.647 -35.093  11.741  0.00  0.00    +0.000 OA
ATOM    226  C2' U   B  27       7.169 -33.189  12.232  0.00  0.00    +0.000 C 
ATOM    227  C1' U   B  27       6.213 -32.940  13.406  0.00  0.00    +0.000 C 
ATOM    228  P   U   B  28      10.160 -34.750  11.303  0.00  0.00    +0.000 P 
ATOM    229  OP1 U   B  28      10.629 -35.824  10.398  0.00  0.00    +0.000 OA
ATOM    230  O5' U   B  28      10.001 -33.414  10.447  0.00  0.00    +0.000 OA
ATOM    231  C5' U   B  28       9.261 -33.403   9.231  0.00  0.00    +0.000 C 
ATOM    232  C4' U   B  28       8.976 -31.993   8.771  0.00  0.00    +0.000 C 
ATOM    233  O4' U   B  28       8.239 -31.278   9.804  0.00  0.00    +0.000 OA
ATOM    234  C3' U   B  28      10.184 -31.117   8.518  0.00  0.00    +0.000 C 
ATOM    235  O3' U   B  28      10.790 -31.366   7.258  0.00  0.00    +0.000 OA
ATOM    236  C2' U   B  28       9.593 -29.717   8.633  0.00  0.00    +0.000 C 
ATOM    237  C1' U   B  28       8.594 -29.908   9.781  0.00  0.00    +0.000 C 
ATOM    238  P   A   B  29      12.367 -31.093   7.038  0.00  0.00    +0.000 P 
ATOM    239  OP1 A   B  29      12.754 -31.673   5.730  0.00  0.00    +0.000 OA
ATOM    240  O5' A   B  29      12.459 -29.502   6.922  0.00  0.00    +0.000 OA
ATOM    241  C5' A   B  29      11.850 -28.811   5.838  0.00  0.00    +0.000 C 
ATOM    242  C4' A   B  29      11.789 -27.326   6.105  0.00  0.00    +0.000 C 
ATOM    243  O4' A   B  29      11.073 -27.084   7.346  0.00  0.00    +0.000 OA
ATOM    244  C3' A   B  29      13.118 -26.630   6.305  0.00  0.00    +0.000 C 
ATOM    245  O3' A   B  29      13.761 -26.323   5.073  0.00  0.00    +0.000 OA
ATOM    246  C2' A   B  29      12.718 -25.393   7.094  0.00  0.00    +0.000 C 
ATOM    247  C1' A   B  29      11.618 -25.953   7.998  0.00  0.00    +0.000 C 
ATOM    248  P   A   B  30      15.360 -26.208   4.981  0.00  0.00    +0.000 P 
ATOM    249  OP1 A   B  30      15.733 -26.138   3.546  0.00  0.00    +0.000 OA
ATOM    250  O5' A   B  30      15.678 -24.793   5.648  0.00  0.00    +0.000 OA
ATOM    251  C5' A   B  30      15.238 -23.580   5.042  0.00  0.00    +0.000 C 
ATOM    252  C4' A   B  30      15.360 -22.421   6.008  0.00  0.00    +0.000 C 
ATOM    253  O4' A   B  30      14.604 -22.713   7.217  0.00  0.00    +0.000 OA
ATOM    254  C3' A   B  30      16.757 -22.122   6.508  0.00  0.00    +0.000 C 
ATOM    255  O3' A   B  30      17.505 -21.337   5.583  0.00  0.00    +0.000 OA
ATOM    256  C2' A   B  30      16.485 -21.403   7.821  0.00  0.00    +0.000 C 
ATOM    257  C1' A   B  30      15.269 -22.173   8.339  0.00  0.00    +0.000 C 
ATOM    258  P   A   B  31      19.094 -21.421   5.530  0.00  0.00    +0.000 P 
ATOM    259  OP1 A   B  31      19.554 -20.694   4.322  0.00  0.00    +0.000 OA
ATOM    260  O5' A   B  31      19.558 -20.595   6.814  0.00  0.00    +0.000 OA
ATOM    261  C5' A   B  31      19.306 -19.198   6.916  0.00  0.00    +0.000 C 
ATOM    262  C4' A   B  31      19.586 -18.704   8.317  0.00  0.00    +0.000 C 
ATOM    263  O4' A   B  31      18.726 -19.399   9.263  0.00  0.00    +0.000 OA
ATOM    264  C3' A   B  31      20.986 -18.952   8.834  0.00  0.00    +0.000 C 
ATOM    265  O3' A   B  31      21.915 -17.977   8.372  0.00  0.00    +0.000 OA
ATOM    266  C2' A   B  31      20.787 -18.925  10.342  0.00  0.00    +0.000 C 
ATOM    267  C1' A   B  31      19.421 -19.606  10.476  0.00  0.00    +0.000 C 
ATOM    268  P   A   B  32      23.450 -18.349   8.121  0.00  0.00    +0.000 P 
ATOM    269  OP1 A   B  32      24.096 -17.214   7.425  0.00  0.00    +0.000 OA
ATOM    270  O5' A   B  32      24.049 -18.435   9.595  0.00  0.00    +0.000 OA
ATOM    271  C5' A   B  32      24.103 -17.283  10.432  0.00  0.00    +0.000 C 
ATOM    272  C4' A   B  32      24.484 -17.667  11.843  0.00  0.00    +0.000 C 
ATOM    273  O4' A   B  32      23.452 -18.516  12.415  0.00  0.00    +0.000 OA
ATOM    274  C3' A   B  32      25.754 -18.480  11.978  0.00  0.00    +0.000 C 
ATOM    275  O3' A   B  32      26.924 -17.670  11.942  0.00  0.00    +0.000 OA
ATOM    276  C2' A   B  32      25.546 -19.186  13.310  0.00  0.00    +0.000 C 
ATOM    277  C1' A   B  32      24.045 -19.485  13.256  0.00  0.00    +0.000 C 
ATOM    278  P   U   B  33      28.264 -18.193  11.219  0.00  0.00    +0.000 P 
ATOM    279  OP2 U   B  33      27.869 -18.907   9.979  0.00  0.00    +0.000 OA
ATOM    280  O5' U   B  33      28.828 -19.272  12.247  0.00  0.00    +0.000 OA
ATOM    281  C5' U   B  33      29.244 -18.892  13.555  0.00  0.00    +0.000 C 
ATOM    282  C4' U   B  33      29.492 -20.100  14.426  0.00  0.00    +0.000 C 
ATOM    283  O4' U   B  33      28.247 -20.819  14.642  0.00  0.00    +0.000 OA
ATOM    284  C3' U   B  33      30.422 -21.145  13.854  0.00  0.00    +0.000 C 
ATOM    285  O3' U   B  33      31.793 -20.798  13.975  0.00  0.00    +0.000 OA
ATOM    286  C2' U   B  33      30.033 -22.384  14.650  0.00  0.00    +0.000 C 
ATOM    287  C1' U   B  33      28.510 -22.204  14.749  0.00  0.00    +0.000 C 
ATOM    288  P   A   B  34      32.848 -21.219  12.826  0.00  0.00    +0.000 P 
ATOM    289  OP2 A   B  34      32.201 -21.019  11.504  0.00  0.00    +0.000 OA
ATOM    290  O5' A   B  34      33.014 -22.789  13.054  0.00  0.00    +0.000 OA
ATOM    291  C5' A   B  34      33.648 -23.282  14.227  0.00  0.00    +0.000 C 
ATOM    292  C4' A   B  34      33.498 -24.781  14.347  0.00  0.00    +0.000 C 
ATOM    293  O4' A   B  34      32.094 -25.133  14.478  0.00  0.00    +0.000 OA
ATOM    294  C3' A   B  34      33.963 -25.599  13.161  0.00  0.00    +0.000 C 
ATOM    295  O3' A   B  34      35.371 -25.753  13.096  0.00  0.00    +0.000 OA
ATOM    296  C2' A   B  34      33.222 -26.910  13.382  0.00  0.00    +0.000 C 
ATOM    297  C1' A   B  34      31.870 -26.403  13.891  0.00  0.00    +0.000 C 
ATOM    298  P   A   B  35      36.118 -25.908  11.673  0.00  0.00    +0.000 P 
ATOM    299  OP2 A   B  35      35.522 -24.931  10.727  0.00  0.00    +0.000 OA
ATOM    300  O5' A   B  35      35.703 -27.370  11.185  0.00  0.00    +0.000 OA
ATOM    301  C5' A   B  35      36.214 -28.521  11.846  0.00  0.00    +0.000 C 
ATOM    302  C4' A   B  35      35.449 -29.768  11.466  0.00  0.00    +0.000 C 
ATOM    303  O4' A   B  35      34.022 -29.558  11.649  0.00  0.00    +0.000 OA
ATOM    304  C3' A   B  35      35.558 -30.219  10.024  0.00  0.00    +0.000 C 
ATOM    305  O3' A   B  35      36.776 -30.885   9.736  0.00  0.00    +0.000 OA
ATOM    306  C2' A   B  35      34.341 -31.124   9.896  0.00  0.00    +0.000 C 
ATOM    307  C1' A   B  35      33.308 -30.352  10.716  0.00  0.00    +0.000 C 
ATOM    308  P   U   B  36      37.421 -30.813   8.257  0.00  0.00    +0.000 P 
ATOM    309  OP2 U   B  36      37.384 -29.395   7.806  0.00  0.00    +0.000 OA
ATOM    310  O5' U   B  36      36.401 -31.641   7.356  0.00  0.00    +0.000 OA
ATOM    311  C5' U   B  36      36.232 -33.039   7.540  0.00  0.00    +0.000 C 
ATOM    312  C4' U   B  36      35.143 -33.587   6.646  0.00  0.00    +0.000 C 
ATOM    313  O4' U   B  36      33.874 -32.941   6.950  0.00  0.00    +0.000 OA
ATOM    314  C3' U   B  36      35.321 -33.350   5.162  0.00  0.00    +0.000 C 
ATOM    315  O3' U   B  36      36.237 -34.258   4.570  0.00  0.00    +0.000 OA
ATOM    316  C2' U   B  36      33.897 -33.502   4.639  0.00  0.00    +0.000 C 
ATOM    317  C1' U   B  36      33.094 -32.842   5.771  0.00  0.00    +0.000 C 
ATOM    318  P   A   B  37      37.055 -33.835   3.248  0.00  0.00    +0.000 P 
ATOM    319  OP1 A   B  37      38.168 -34.794   3.071  0.00  0.00    +0.000 OA
ATOM    320  O5' A   B  37      36.005 -34.072   2.075  0.00  0.00    +0.000 OA
ATOM    321  C5' A   B  37      35.535 -35.377   1.771  0.00  0.00    +0.000 C 
ATOM    322  C4' A   B  37      34.506 -35.339   0.665  0.00  0.00    +0.000 C 
ATOM    323  O4' A   B  37      33.331 -34.612   1.115  0.00  0.00    +0.000 OA
ATOM    324  C3' A   B  37      34.926 -34.609  -0.601  0.00  0.00    +0.000 C 
ATOM    325  O3' A   B  37      35.727 -35.422  -1.449  0.00  0.00    +0.000 OA
ATOM    326  C2' A   B  37      33.589 -34.229  -1.217  0.00  0.00    +0.000 C 
ATOM    327  C1' A   B  37      32.770 -33.894   0.032  0.00  0.00    +0.000 C 
ATOM    328  P   U   B  38      36.946 -34.783  -2.292  0.00  0.00    +0.000 P 
ATOM    329  OP1 U   B  38      37.752 -35.893  -2.846  0.00  0.00    +0.000 OA
ATOM    330  O5' U   B  38      36.222 -34.037  -3.498  0.00  0.00    +0.000 OA
ATOM    331  C5' U   B  38      35.471 -34.765  -4.461  0.00  0.00    +0.000 C 
ATOM    332  C4' U   B  38      34.670 -33.833  -5.341  0.00  0.00    +0.000 C 
ATOM    333  O4' U   B  38      33.734 -33.079  -4.522  0.00  0.00    +0.000 OA
ATOM    334  C3' U   B  38      35.460 -32.766  -6.070  0.00  0.00    +0.000 C 
ATOM    335  O3' U   B  38      36.073 -33.258  -7.254  0.00  0.00    +0.000 OA
ATOM    336  C2' U   B  38      34.402 -31.703  -6.346  0.00  0.00    +0.000 C 
ATOM    337  C1' U   B  38      33.542 -31.793  -5.076  0.00  0.00    +0.000 C 
ATOM    338  P   U   B  39      37.649 -33.309  -7.505  0.00  0.00    +0.000 P 
ATOM    339  OP1 U   B  39      37.895 -33.997  -8.800  0.00  0.00    +0.000 OA
ATOM    340  O5' U   B  39      38.052 -31.775  -7.713  0.00  0.00    +0.000 OA
ATOM    341  C5' U   B  39      38.346 -30.914  -6.653  0.00  0.00    +0.000 C 
ATOM    342  C4' U   B  39      39.789 -30.477  -6.666  0.00  0.00    +0.000 C 
ATOM    343  O4' U   B  39      40.642 -31.649  -6.582  0.00  0.00    +0.000 OA
ATOM    344  C3' U   B  39      40.285 -29.739  -7.889  0.00  0.00    +0.000 C 
ATOM    345  O3' U   B  39      39.918 -28.376  -7.891  0.00  0.00    +0.000 OA
ATOM    346  C2' U   B  39      41.794 -29.950  -7.809  0.00  0.00    +0.000 C 
ATOM    347  C1' U   B  39      41.869 -31.375  -7.236  0.00  0.00    +0.000 C 
ATOM    348  P   C   B  40      39.906 -27.562  -9.239  0.00  0.00    +0.000 P 
ATOM    349  OP2 C   B  40      41.084 -27.899 -10.061  0.00  0.00    +0.000 OA
ATOM    350  O5' C   B  40      40.097 -26.075  -8.698  0.00  0.00    +0.000 OA
ATOM    351  C5' C   B  40      41.333 -25.638  -8.158  0.00  0.00    +0.000 C 
ATOM    352  C4' C   B  40      41.470 -24.146  -8.326  0.00  0.00    +0.000 C 
ATOM    353  O4' C   B  40      41.394 -23.811  -9.737  0.00  0.00    +0.000 OA
ATOM    354  C3' C   B  40      40.394 -23.303  -7.677  0.00  0.00    +0.000 C 
ATOM    355  O3' C   B  40      40.623 -23.099  -6.285  0.00  0.00    +0.000 OA
ATOM    356  C2' C   B  40      40.455 -22.018  -8.490  0.00  0.00    +0.000 C 
ATOM    357  C1' C   B  40      40.728 -22.568  -9.890  0.00  0.00    +0.000 C 
ATOM    358  P   U   B  41      39.416 -23.237  -5.245  0.00  0.00    +0.000 P 
ATOM    359  OP2 U   B  41      38.719 -24.523  -5.503  0.00  0.00    +0.000 OA
ATOM    360  O5' U   B  41      38.429 -22.056  -5.650  0.00  0.00    +0.000 OA
ATOM    361  C5' U   B  41      38.816 -20.696  -5.499  0.00  0.00    +0.000 C 
ATOM    362  C4' U   B  41      37.807 -19.776  -6.137  0.00  0.00    +0.000 C 
ATOM    363  O4' U   B  41      37.712 -20.062  -7.559  0.00  0.00    +0.000 OA
ATOM    364  C3' U   B  41      36.383 -19.913  -5.640  0.00  0.00    +0.000 C 
ATOM    365  O3' U   B  41      36.167 -19.227  -4.412  0.00  0.00    +0.000 OA
ATOM    366  C2' U   B  41      35.583 -19.336  -6.799  0.00  0.00    +0.000 C 
ATOM    367  C1' U   B  41      36.382 -19.852  -7.997  0.00  0.00    +0.000 C 
ATOM    368  P   U   B  42      35.162 -19.814  -3.320  0.00  0.00    +0.000 P 
ATOM    369  OP2 U   B  42      35.396 -21.277  -3.212  0.00  0.00    +0.000 OA
ATOM    370  O5' U   B  42      33.728 -19.590  -3.977  0.00  0.00    +0.000 OA
ATOM    371  C5' U   B  42      33.223 -18.278  -4.207  0.00  0.00    +0.000 C 
ATOM    372  C4' U   B  42      31.977 -18.312  -5.056  0.00  0.00    +0.000 C 
ATOM    373  O4' U   B  42      32.270 -18.921  -6.346  0.00  0.00    +0.000 OA
ATOM    374  C3' U   B  42      30.828 -19.141  -4.523  0.00  0.00    +0.000 C 
ATOM    375  O3' U   B  42      30.084 -18.478  -3.504  0.00  0.00    +0.000 OA
ATOM    376  C2' U   B  42      30.016 -19.405  -5.784  0.00  0.00    +0.000 C 
ATOM    377  C1' U   B  42      31.129 -19.613  -6.815  0.00  0.00    +0.000 C 
ATOM    378  P   A   B  43      29.553 -19.279  -2.229  0.00  0.00    +0.000 P 
ATOM    379  OP2 A   B  43      30.696 -20.015  -1.633  0.00  0.00    +0.000 OA
ATOM    380  O5' A   B  43      28.552 -20.357  -2.847  0.00  0.00    +0.000 OA
ATOM    381  C5' A   B  43      27.316 -19.955  -3.427  0.00  0.00    +0.000 C 
ATOM    382  C4' A   B  43      26.737 -21.049  -4.290  0.00  0.00    +0.000 C 
ATOM    383  O4' A   B  43      27.729 -21.494  -5.253  0.00  0.00    +0.000 OA
ATOM    384  C3' A   B  43      26.329 -22.321  -3.575  0.00  0.00    +0.000 C 
ATOM    385  O3' A   B  43      25.059 -22.219  -2.943  0.00  0.00    +0.000 OA
ATOM    386  C2' A   B  43      26.355 -23.342  -4.702  0.00  0.00    +0.000 C 
ATOM    387  C1' A   B  43      27.573 -22.879  -5.495  0.00  0.00    +0.000 C 
ATOM    388  P   C   B  44      24.765 -22.935  -1.560  0.00  0.00    +0.000 P 
ATOM    389  OP1 C   B  44      23.390 -22.576  -1.144  0.00  0.00    +0.000 OA
ATOM    390  O5' C   B  44      24.791 -24.486  -1.927  0.00  0.00    +0.000 OA
ATOM    391  C5' C   B  44      23.849 -25.056  -2.830  0.00  0.00    +0.000 C 
ATOM    392  C4' C   B  44      24.273 -26.443  -3.255  0.00  0.00    +0.000 C 
ATOM    393  O4' C   B  44      25.596 -26.385  -3.861  0.00  0.00    +0.000 OA
ATOM    394  C3' C   B  44      24.414 -27.453  -2.137  0.00  0.00    +0.000 C 
ATOM    395  O3' C   B  44      23.165 -28.036  -1.781  0.00  0.00    +0.000 OA
ATOM    396  C2' C   B  44      25.397 -28.462  -2.724  0.00  0.00    +0.000 C 
ATOM    397  C1' C   B  44      26.331 -27.543  -3.519  0.00  0.00    +0.000 C 
ATOM    398  P   U   B  45      22.913 -28.604  -0.316  0.00  0.00    +0.000 P 
ATOM    399  OP1 U   B  45      21.460 -28.849  -0.176  0.00  0.00    +0.000 OA
ATOM    400  O5' U   B  45      23.658 -30.015  -0.333  0.00  0.00    +0.000 OA
ATOM    401  C5' U   B  45      23.281 -31.039  -1.246  0.00  0.00    +0.000 C 
ATOM    402  C4' U   B  45      24.082 -32.300  -1.014  0.00  0.00    +0.000 C 
ATOM    403  O4' U   B  45      25.489 -32.049  -1.276  0.00  0.00    +0.000 OA
ATOM    404  C3' U   B  45      24.058 -32.832   0.401  0.00  0.00    +0.000 C 
ATOM    405  O3' U   B  45      22.882 -33.588   0.677  0.00  0.00    +0.000 OA
ATOM    406  C2' U   B  45      25.336 -33.660   0.465  0.00  0.00    +0.000 C 
ATOM    407  C1' U   B  45      26.286 -32.811  -0.388  0.00  0.00    +0.000 C 
ATOM    408  P   U   B  46      22.140 -33.457   2.075  0.00  0.00    +0.000 P 
ATOM    409  OP1 U   B  46      20.901 -34.271   2.013  0.00  0.00    +0.000 OA
ATOM    410  O5' U   B  46      23.149 -34.168   3.078  0.00  0.00    +0.000 OA
ATOM    411  C5' U   B  46      23.480 -35.545   2.937  0.00  0.00    +0.000 C 
ATOM    412  C4' U   B  46      24.643 -35.918   3.823  0.00  0.00    +0.000 C 
ATOM    413  O4' U   B  46      25.830 -35.188   3.407  0.00  0.00    +0.000 OA
ATOM    414  C3' U   B  46      24.493 -35.570   5.287  0.00  0.00    +0.000 C 
ATOM    415  O3' U   B  46      23.700 -36.513   5.995  0.00  0.00    +0.000 OA
ATOM    416  C2' U   B  46      25.939 -35.512   5.758  0.00  0.00    +0.000 C 
ATOM    417  C1' U   B  46      26.624 -34.884   4.536  0.00  0.00    +0.000 C 
ATOM    418  P   U   B  47      22.819 -36.053   7.242  0.00  0.00    +0.000 P 
ATOM    419  OP2 U   B  47      22.231 -34.721   6.940  0.00  0.00    +0.000 OA
ATOM    420  O5' U   B  47      23.893 -35.870   8.403  0.00  0.00    +0.000 OA
ATOM    421  C5' U   B  47      24.667 -36.969   8.864  0.00  0.00    +0.000 C 
ATOM    422  C4' U   B  47      25.718 -36.529   9.855  0.00  0.00    +0.000 C 
ATOM    423  O4' U   B  47      26.675 -35.648   9.204  0.00  0.00    +0.000 OA
ATOM    424  C3' U   B  47      25.221 -35.720  11.032  0.00  0.00    +0.000 C 
ATOM    425  O3' U   B  47      24.634 -36.528  12.044  0.00  0.00    +0.000 OA
ATOM    426  C2' U   B  47      26.485 -35.002  11.484  0.00  0.00    +0.000 C 
ATOM    427  C1' U   B  47      27.160 -34.702  10.138  0.00  0.00    +0.000 C 
ATOM    428  P   A   B  48      23.480 -35.940  12.984  0.00  0.00    +0.000 P 
ATOM    429  OP2 A   B  48      22.602 -35.068  12.160  0.00  0.00    +0.000 OA
ATOM    430  O5' A   B  48      24.272 -35.012  14.008  0.00  0.00    +0.000 OA
ATOM    431  C5' A   B  48      25.217 -35.568  14.912  0.00  0.00    +0.000 C 
ATOM    432  C4' A   B  48      25.984 -34.485  15.632  0.00  0.00    +0.000 C 
ATOM    433  O4' A   B  48      26.765 -33.721  14.673  0.00  0.00    +0.000 OA
ATOM    434  C3' A   B  48      25.144 -33.441  16.341  0.00  0.00    +0.000 C 
ATOM    435  O3' A   B  48      24.671 -33.889  17.603  0.00  0.00    +0.000 OA
ATOM    436  C2' A   B  48      26.110 -32.269  16.438  0.00  0.00    +0.000 C 
ATOM    437  C1' A   B  48      26.846 -32.373  15.098  0.00  0.00    +0.000 C 
ATOM    438  P   U   B  49      23.272 -33.395  18.184  0.00  0.00    +0.000 P 
ATOM    439  OP2 U   B  49      22.327 -33.256  17.045  0.00  0.00    +0.000 OA
ATOM    440  O5' U   B  49      23.595 -31.936  18.739  0.00  0.00    +0.000 OA
ATOM    441  C5' U   B  49      24.530 -31.737  19.785  0.00  0.00    +0.000 C 
ATOM    442  C4' U   B  49      24.924 -30.285  19.905  0.00  0.00    +0.000 C 
ATOM    443  O4' U   B  49      25.548 -29.840  18.669  0.00  0.00    +0.000 OA
ATOM    444  C3' U   B  49      23.787 -29.307  20.115  0.00  0.00    +0.000 C 
ATOM    445  O3' U   B  49      23.346 -29.261  21.465  0.00  0.00    +0.000 OA
ATOM    446  C2' U   B  49      24.401 -27.997  19.633  0.00  0.00    +0.000 C 
ATOM    447  C1' U   B  49      25.236 -28.480  18.440  0.00  0.00    +0.000 C 
ATOM    448  P   U   B  50      21.823 -28.917  21.818  0.00  0.00    +0.000 P 
ATOM    449  OP2 U   B  50      20.949 -29.580  20.816  0.00  0.00    +0.000 OA
ATOM    450  O5' U   B  50      21.738 -27.345  21.581  0.00  0.00    +0.000 OA
ATOM    451  C5' U   B  50      22.567 -26.448  22.294  0.00  0.00    +0.000 C 
ATOM    452  C4' U   B  50      22.509 -25.060  21.707  0.00  0.00    +0.000 C 
ATOM    453  O4' U   B  50      23.034 -25.077  20.350  0.00  0.00    +0.000 OA
ATOM    454  C3' U   B  50      21.123 -24.471  21.559  0.00  0.00    +0.000 C 
ATOM    455  O3' U   B  50      20.644 -23.932  22.781  0.00  0.00    +0.000 OA
ATOM    456  C2' U   B  50      21.327 -23.428  20.466  0.00  0.00    +0.000 C 
ATOM    457  C1' U   B  50      22.341 -24.132  19.558  0.00  0.00    +0.000 C 
ATOM    458  P   U   B  51      19.101 -23.631  22.996  0.00  0.00    +0.000 P 
ATOM    459  OP2 U   B  51      18.313 -24.542  22.131  0.00  0.00    +0.000 OA
ATOM    460  O5' U   B  51      18.966 -22.152  22.422  0.00  0.00    +0.000 OA
ATOM    461  C5' U   B  51      17.738 -21.707  21.875  0.00  0.00    +0.000 C 
ATOM    462  C4' U   B  51      17.982 -20.768  20.723  0.00  0.00    +0.000 C 
ATOM    463  O4' U   B  51      18.838 -21.407  19.736  0.00  0.00    +0.000 OA
ATOM    464  C3' U   B  51      16.739 -20.383  19.947  0.00  0.00    +0.000 C 
ATOM    465  O3' U   B  51      16.037 -19.321  20.578  0.00  0.00    +0.000 OA
ATOM    466  C2' U   B  51      17.295 -20.033  18.579  0.00  0.00    +0.000 C 
ATOM    467  C1' U   B  51      18.413 -21.073  18.436  0.00  0.00    +0.000 C 
ATOM    468  P   U   B  52      14.475 -19.408  20.832  0.00  0.00    +0.000 P 
ATOM    469  OP2 U   B  52      14.111 -20.828  21.055  0.00  0.00    +0.000 OA
ATOM    470  O5' U   B  52      13.887 -18.954  19.425  0.00  0.00    +0.000 OA
ATOM    471  C5' U   B  52      14.266 -17.716  18.835  0.00  0.00    +0.000 C 
ATOM    472  C4' U   B  52      14.023 -17.716  17.349  0.00  0.00    +0.000 C 
ATOM    473  O4' U   B  52      14.881 -18.699  16.702  0.00  0.00    +0.000 OA
ATOM    474  C3' U   B  52      12.631 -18.103  16.906  0.00  0.00    +0.000 C 
ATOM    475  O3' U   B  52      11.695 -17.040  17.033  0.00  0.00    +0.000 OA
ATOM    476  C2' U   B  52      12.864 -18.542  15.465  0.00  0.00    +0.000 C 
ATOM    477  C1' U   B  52      14.216 -19.254  15.583  0.00  0.00    +0.000 C 
ATOM    478  P   A   B  53      10.163 -17.345  17.339  0.00  0.00    +0.000 P 
ATOM    479  OP1 A   B  53       9.490 -16.058  17.638  0.00  0.00    +0.000 OA
ATOM    480  O5' A   B  53       9.614 -17.878  15.938  0.00  0.00    +0.000 OA
ATOM    481  C5' A   B  53       9.645 -17.046  14.782  0.00  0.00    +0.000 C 
ATOM    482  C4' A   B  53       9.409 -17.850  13.528  0.00  0.00    +0.000 C 
ATOM    483  O4' A   B  53      10.451 -18.858  13.376  0.00  0.00    +0.000 OA
ATOM    484  C3' A   B  53       8.125 -18.651  13.484  0.00  0.00    +0.000 C 
ATOM    485  O3' A   B  53       6.996 -17.855  13.151  0.00  0.00    +0.000 OA
ATOM    486  C2' A   B  53       8.448 -19.711  12.439  0.00  0.00    +0.000 C 
ATOM    487  C1' A   B  53       9.913 -20.009  12.754  0.00  0.00    +0.000 C 
ATOM    488  P   A   B  54       5.549 -18.247  13.681  0.00  0.00    +0.000 P 
ATOM    489  OP1 A   B  54       4.641 -17.107  13.398  0.00  0.00    +0.000 OA
ATOM    490  O5' A   B  54       5.129 -19.463  12.737  0.00  0.00    +0.000 OA
ATOM    491  C5' A   B  54       5.027 -19.287  11.326  0.00  0.00    +0.000 C 
ATOM    492  C4' A   B  54       4.941 -20.622  10.623  0.00  0.00    +0.000 C 
ATOM    493  O4' A   B  54       6.138 -21.404  10.888  0.00  0.00    +0.000 OA
ATOM    494  C3' A   B  54       3.810 -21.526  11.065  0.00  0.00    +0.000 C 
ATOM    495  O3' A   B  54       2.565 -21.170  10.475  0.00  0.00    +0.000 OA
ATOM    496  C2' A   B  54       4.315 -22.897  10.637  0.00  0.00    +0.000 C 
ATOM    497  C1' A   B  54       5.808 -22.778  10.947  0.00  0.00    +0.000 C 
ATOM    498  P   A   B  55       1.200 -21.437  11.252  0.00  0.00    +0.000 P 
ATOM    499  OP1 A   B  55       0.110 -20.757  10.503  0.00  0.00    +0.000 OA
ATOM    500  O5' A   B  55       1.003 -23.009  11.099  0.00  0.00    +0.000 OA
ATOM    501  C5' A   B  55       0.890 -23.605   9.810  0.00  0.00    +0.000 C 
ATOM    502  C4' A   B  55       0.955 -25.110   9.908  0.00  0.00    +0.000 C 
ATOM    503  O4' A   B  55       2.256 -25.522  10.406  0.00  0.00    +0.000 OA
ATOM    504  C3' A   B  55      -0.025 -25.743  10.871  0.00  0.00    +0.000 C 
ATOM    505  O3' A   B  55      -1.332 -25.857  10.319  0.00  0.00    +0.000 OA
ATOM    506  C2' A   B  55       0.636 -27.082  11.160  0.00  0.00    +0.000 C 
ATOM    507  C1' A   B  55       2.114 -26.687  11.196  0.00  0.00    +0.000 C 
ATOM    508  P   A   B  56      -2.607 -25.723  11.252  0.00  0.00    +0.000 P 
ATOM    509  OP1 A   B  56      -3.801 -25.603  10.375  0.00  0.00    +0.000 OA
ATOM    510  O5' A   B  56      -2.656 -27.140  11.975  0.00  0.00    +0.000 OA
ATOM    511  C5' A   B  56      -2.763 -28.339  11.215  0.00  0.00    +0.000 C 
ATOM    512  C4' A   B  56      -2.562 -29.553  12.090  0.00  0.00    +0.000 C 
ATOM    513  O4' A   B  56      -1.189 -29.605  12.563  0.00  0.00    +0.000 OA
ATOM    514  C3' A   B  56      -3.385 -29.591  13.358  0.00  0.00    +0.000 C 
ATOM    515  O3' A   B  56      -4.731 -29.995  13.124  0.00  0.00    +0.000 OA
ATOM    516  C2' A   B  56      -2.593 -30.560  14.221  0.00  0.00    +0.000 C 
ATOM    517  C1' A   B  56      -1.156 -30.179  13.855  0.00  0.00    +0.000 C 
ATOM    518  P   A   B  57      -5.907 -29.374  13.995  0.00  0.00    +0.000 P 
ATOM    519  OP1 A   B  57      -7.191 -29.730  13.336  0.00  0.00    +0.000 OA
ATOM    520  O5' A   B  57      -5.797 -30.191  15.358  0.00  0.00    +0.000 OA
ATOM    521  C5' A   B  57      -5.894 -31.608  15.356  0.00  0.00    +0.000 C 
ATOM    522  C4' A   B  57      -5.478 -32.180  16.690  0.00  0.00    +0.000 C 
ATOM    523  O4' A   B  57      -4.058 -31.953  16.905  0.00  0.00    +0.000 OA
ATOM    524  C3' A   B  57      -6.129 -31.558  17.906  0.00  0.00    +0.000 C 
ATOM    525  O3' A   B  57      -7.450 -32.033  18.123  0.00  0.00    +0.000 OA
ATOM    526  C2' A   B  57      -5.153 -31.928  19.010  0.00  0.00    +0.000 C 
ATOM    527  C1' A   B  57      -3.815 -31.767  18.284  0.00  0.00    +0.000 C 
ATOM    528  P   C   B  58      -8.548 -31.051  18.727  0.00  0.00    +0.000 P 
ATOM    529  OP2 C   B  58      -8.280 -29.668  18.250  0.00  0.00    +0.000 OA
ATOM    530  O5' C   B  58      -8.248 -31.087  20.289  0.00  0.00    +0.000 OA
ATOM    531  C5' C   B  58      -8.222 -32.316  20.994  0.00  0.00    +0.000 C 
ATOM    532  C4' C   B  58      -7.653 -32.138  22.380  0.00  0.00    +0.000 C 
ATOM    533  O4' C   B  58      -6.245 -31.784  22.299  0.00  0.00    +0.000 OA
ATOM    534  C3' C   B  58      -8.252 -31.022  23.204  0.00  0.00    +0.000 C 
ATOM    535  O3' C   B  58      -9.502 -31.372  23.766  0.00  0.00    +0.000 OA
ATOM    536  C2' C   B  58      -7.165 -30.771  24.241  0.00  0.00    +0.000 C 
ATOM    537  C1' C   B  58      -5.901 -30.958  23.393  0.00  0.00    +0.000 C 
ATOM    538  P   A   B  59     -10.654 -30.327  23.824  0.00  0.00    +0.000 P 
ATOM    539  OP2 A   B  59     -10.213 -29.072  23.155  0.00  0.00    +0.000 OA
ATOM    540  O5' A   B  59     -10.782 -30.046  25.384  0.00  0.00    +0.000 OA
ATOM    541  C5' A   B  59      -9.753 -29.365  26.104  0.00  0.00    +0.000 C 
ATOM    542  C4' A   B  59     -10.145 -29.281  27.540  0.00  0.00    +0.000 C 
ATOM    543  O4' A   B  59      -9.102 -28.634  28.322  0.00  0.00    +0.000 OA
ATOM    544  C3' A   B  59     -11.374 -28.444  27.824  0.00  0.00    +0.000 C 
ATOM    545  O3' A   B  59     -12.586 -29.141  27.563  0.00  0.00    +0.000 OA
ATOM    546  C2' A   B  59     -11.192 -28.111  29.298  0.00  0.00    +0.000 C 
ATOM    547  C1' A   B  59      -9.685 -27.883  29.363  0.00  0.00    +0.000 C 
ATOM    548  P   G   B  60     -13.818 -28.377  27.061  0.00  0.00    +0.000 P 
ATOM    549  OP2 G   B  60     -13.391 -27.187  26.289  0.00  0.00    +0.000 OA
ATOM    550  O5' G   B  60     -14.435 -27.871  28.433  0.00  0.00    +0.000 OA
ATOM    551  C5' G   B  60     -14.707 -28.775  29.491  0.00  0.00    +0.000 C 
ATOM    552  C4' G   B  60     -14.946 -28.041  30.782  0.00  0.00    +0.000 C 
ATOM    553  O4' G   B  60     -13.752 -27.311  31.169  0.00  0.00    +0.000 OA
ATOM    554  C3' G   B  60     -16.020 -26.977  30.738  0.00  0.00    +0.000 C 
ATOM    555  O3' G   B  60     -17.323 -27.529  30.834  0.00  0.00    +0.000 OA
ATOM    556  C2' G   B  60     -15.639 -26.091  31.911  0.00  0.00    +0.000 C 
ATOM    557  C1' G   B  60     -14.118 -26.103  31.804  0.00  0.00    +0.000 C 
ATOM    558  P   A   B  61     -18.530 -26.784  30.180  0.00  0.00    +0.000 P 
ATOM    559  OP2 A   B  61     -18.059 -26.027  28.994  0.00  0.00    +0.000 OA
ATOM    560  O5' A   B  61     -18.922 -25.738  31.308  0.00  0.00    +0.000 OA
ATOM    561  C5' A   B  61     -19.256 -26.174  32.619  0.00  0.00    +0.000 C 
ATOM    562  C4' A   B  61     -19.541 -25.002  33.518  0.00  0.00    +0.000 C 
ATOM    563  O4' A   B  61     -18.311 -24.295  33.824  0.00  0.00    +0.000 OA
ATOM    564  C3' A   B  61     -20.433 -23.930  32.931  0.00  0.00    +0.000 C 
ATOM    565  O3' A   B  61     -21.809 -24.289  32.977  0.00  0.00    +0.000 OA
ATOM    566  C2' A   B  61     -20.085 -22.722  33.783  0.00  0.00    +0.000 C 
ATOM    567  C1' A   B  61     -18.580 -22.914  33.962  0.00  0.00    +0.000 C 
ATOM    568  P   C   B  62     -22.749 -23.899  31.778  0.00  0.00    +0.000 P 
ATOM    569  OP2 C   B  62     -22.007 -24.006  30.497  0.00  0.00    +0.000 OA
ATOM    570  O5' C   B  62     -23.026 -22.360  32.060  0.00  0.00    +0.000 OA
ATOM    571  C5' C   B  62     -23.505 -21.924  33.326  0.00  0.00    +0.000 C 
ATOM    572  C4' C   B  62     -23.377 -20.431  33.465  0.00  0.00    +0.000 C 
ATOM    573  O4' C   B  62     -21.976 -20.051  33.491  0.00  0.00    +0.000 OA
ATOM    574  C3' C   B  62     -23.947 -19.612  32.335  0.00  0.00    +0.000 C 
ATOM    575  O3' C   B  62     -25.362 -19.501  32.412  0.00  0.00    +0.000 OA
ATOM    576  C2' C   B  62     -23.216 -18.286  32.496  0.00  0.00    +0.000 C 
ATOM    577  C1' C   B  62     -21.823 -18.771  32.910  0.00  0.00    +0.000 C 
ATOM    578  P   U   B  63     -26.215 -19.370  31.094  0.00  0.00    +0.000 P 
ATOM    579  OP2 U   B  63     -25.454 -19.968  29.967  0.00  0.00    +0.000 OA
ATOM    580  O5' U   B  63     -26.259 -17.794  30.881  0.00  0.00    +0.000 OA
ATOM    581  C5' U   B  63     -26.684 -16.932  31.918  0.00  0.00    +0.000 C 
ATOM    582  C4' U   B  63     -26.263 -15.511  31.649  0.00  0.00    +0.000 C 
ATOM    583  O4' U   B  63     -24.820 -15.396  31.745  0.00  0.00    +0.000 OA
ATOM    584  C3' U   B  63     -26.577 -14.978  30.270  0.00  0.00    +0.000 C 
ATOM    585  O3' U   B  63     -27.938 -14.592  30.140  0.00  0.00    +0.000 OA
ATOM    586  C2' U   B  63     -25.596 -13.818  30.143  0.00  0.00    +0.000 C 
ATOM    587  C1' U   B  63     -24.368 -14.382  30.869  0.00  0.00    +0.000 C 
ATOM    588  P   A   B  64     -28.707 -14.805  28.773  0.00  0.00    +0.000 P 
ATOM    589  OP2 A   B  64     -28.198 -16.036  28.126  0.00  0.00    +0.000 OA
ATOM    590  O5' A   B  64     -28.219 -13.554  27.914  0.00  0.00    +0.000 OA
ATOM    591  C5' A   B  64     -28.449 -12.233  28.367  0.00  0.00    +0.000 C 
ATOM    592  C4' A   B  64     -27.600 -11.246  27.601  0.00  0.00    +0.000 C 
ATOM    593  O4' A   B  64     -26.194 -11.490  27.874  0.00  0.00    +0.000 OA
ATOM    594  C3' A   B  64     -27.694 -11.327  26.093  0.00  0.00    +0.000 C 
ATOM    595  O3' A   B  64     -28.848 -10.663  25.602  0.00  0.00    +0.000 OA
ATOM    596  C2' A   B  64     -26.388 -10.675  25.651  0.00  0.00    +0.000 C 
ATOM    597  C1' A   B  64     -25.423 -11.137  26.748  0.00  0.00    +0.000 C 
ATOM    598  P   C   B  65     -29.832 -11.354  24.608  0.00  0.00    +0.000 P 
ATOM    599  OP2 C   B  65     -29.413 -12.756  24.366  0.00  0.00    +0.000 OA
ATOM    600  O5' C   B  65     -29.596 -10.524  23.262  0.00  0.00    +0.000 OA
ATOM    601  C5' C   B  65     -28.808 -11.031  22.209  0.00  0.00    +0.000 C 
ATOM    602  C4' C   B  65     -28.633  -9.988  21.138  0.00  0.00    +0.000 C 
ATOM    603  O4' C   B  65     -29.928  -9.553  20.668  0.00  0.00    +0.000 OA
ATOM    604  C3' C   B  65     -27.948  -8.711  21.573  0.00  0.00    +0.000 C 
ATOM    605  O3' C   B  65     -26.537  -8.839  21.566  0.00  0.00    +0.000 OA
ATOM    606  C2' C   B  65     -28.450  -7.701  20.547  0.00  0.00    +0.000 C 
ATOM    607  C1' C   B  65     -29.887  -8.180  20.331  0.00  0.00    +0.000 C 
ATOM    608  P   A   B  66     -25.662  -8.292  22.748  0.00  0.00    +0.000 P 
ATOM    609  OP1 A   B  66     -24.465  -9.177  22.842  0.00  0.00    +0.000 OA
ATOM    610  O5' A   B  66     -25.172  -6.867  22.212  0.00  0.00    +0.000 OA
ATOM    611  C5' A   B  66     -25.942  -5.696  22.401  0.00  0.00    +0.000 C 
ATOM    612  C4' A   B  66     -25.086  -4.482  22.157  0.00  0.00    +0.000 C 
ATOM    613  O4' A   B  66     -23.991  -4.467  23.108  0.00  0.00    +0.000 OA
ATOM    614  C3' A   B  66     -24.410  -4.423  20.801  0.00  0.00    +0.000 C 
ATOM    615  C2' A   B  66     -23.198  -3.547  21.076  0.00  0.00    +0.000 C 
ATOM    616  C1' A   B  66     -22.811  -4.009  22.477  0.00  0.00    +0.000 C 
ATOM    617  N9  A   B  66     -21.835  -5.109  22.470  0.00  0.00    +0.000 N 
ATOM    618  C8  A   B  66     -22.034  -6.394  22.900  0.00  0.00    +0.000 A 
ATOM    619  N7  A   B  66     -20.977  -7.161  22.773  0.00  0.00    +0.000 NA
ATOM    620  C5  A   B  66     -20.019  -6.323  22.227  0.00  0.00    +0.000 A 
ATOM    621  C6  A   B  66     -18.686  -6.532  21.852  0.00  0.00    +0.000 C 
ATOM    622  N6  A   B  66     -18.062  -7.709  21.978  0.00  0.00    +0.000 NA
ATOM    623  N1  A   B  66     -18.004  -5.489  21.334  0.00  0.00    +0.000 N 
ATOM    624  C2  A   B  66     -18.631  -4.312  21.208  0.00  0.00    +0.000 C 
ATOM    625  N3  A   B  66     -19.882  -3.990  21.525  0.00  0.00    +0.000 NA
ATOM    626  C4  A   B  66     -20.532  -5.054  22.037  0.00  0.00    +0.000 A 
ATOM    627  H   A   B  66     -17.065  -5.591  21.055  0.00  0.00    +0.000 HD
ENDROOT
BRANCH 137 628
ATOM    628  N9  G   B  18       0.441   0.401  33.280  0.00  0.00    +0.000 N 
ATOM    629  C8  G   B  18      -0.577   0.113  34.156  0.00  0.00    +0.000 A 
ATOM    630  N7  G   B  18      -0.309  -0.901  34.933  0.00  0.00    +0.000 NA
ATOM    631  C5  G   B  18       0.962  -1.302  34.553  0.00  0.00    +0.000 A 
ATOM    632  C6  G   B  18       1.778  -2.352  35.040  0.00  0.00    +0.000 A 
ATOM    633  O6  G   B  18       1.535  -3.167  35.938  0.00  0.00    +0.000 OA
ATOM    634  N1  G   B  18       2.996  -2.413  34.372  0.00  0.00    +0.000 NA
ATOM    635  C2  G   B  18       3.375  -1.566  33.360  0.00  0.00    +0.000 A 
ATOM    636  N2  G   B  18       4.594  -1.775  32.831  0.00  0.00    +0.000 N 
ATOM    637  N3  G   B  18       2.627  -0.582  32.896  0.00  0.00    +0.000 N 
ATOM    638  C4  G   B  18       1.441  -0.509  33.535  0.00  0.00    +0.000 A 
ATOM    639  H   G   B  18       4.920  -1.199  32.102  0.00  0.00    +0.000 HD
ATOM    640  H   G   B  18       5.160  -2.504  33.173  0.00  0.00    +0.000 HD
ATOM    641  H   G   B  18       2.902   0.025  32.171  0.00  0.00    +0.000 HD
ENDBRANCH 137 628
BRANCH 557 642
ATOM    642  N9  G   B  60     -13.611 -24.976  31.005  0.00  0.00    +0.000 N 
ATOM    643  C8  G   B  60     -13.131 -25.015  29.718  0.00  0.00    +0.000 A 
ATOM    644  N7  G   B  60     -12.756 -23.845  29.277  0.00  0.00    +0.000 NA
ATOM    645  C5  G   B  60     -13.003 -22.980  30.333  0.00  0.00    +0.000 A 
ATOM    646  C6  G   B  60     -12.796 -21.584  30.444  0.00  0.00    +0.000 A 
ATOM    647  O6  G   B  60     -12.343 -20.802  29.596  0.00  0.00    +0.000 OA
ATOM    648  N1  G   B  60     -13.182 -21.108  31.684  0.00  0.00    +0.000 NA
ATOM    649  C2  G   B  60     -13.699 -21.876  32.697  0.00  0.00    +0.000 A 
ATOM    650  N2  G   B  60     -14.013 -21.233  33.829  0.00  0.00    +0.000 N 
ATOM    651  N3  G   B  60     -13.898 -23.179  32.611  0.00  0.00    +0.000 N 
ATOM    652  C4  G   B  60     -13.527 -23.664  31.408  0.00  0.00    +0.000 A 
ATOM    653  H   G   B  60     -13.867 -20.262  33.900  0.00  0.00    +0.000 HD
ATOM    654  H   G   B  60     -14.389 -21.731  34.590  0.00  0.00    +0.000 HD
ATOM    655  H   G   B  60     -14.272 -23.729  33.337  0.00  0.00    +0.000 HD
ENDBRANCH 557 642
BRANCH 487 656
ATOM    656  N9  A   B  53      10.065 -21.156  13.663  0.00  0.00    +0.000 N 
ATOM    657  C8  A   B  53      10.360 -21.145  15.004  0.00  0.00    +0.000 A 
ATOM    658  N7  A   B  53      10.431 -22.345  15.533  0.00  0.00    +0.000 NA
ATOM    659  C5  A   B  53      10.165 -23.200  14.473  0.00  0.00    +0.000 A 
ATOM    660  C6  A   B  53      10.090 -24.599  14.375  0.00  0.00    +0.000 A 
ATOM    661  N6  A   B  53      10.285 -25.422  15.413  0.00  0.00    +0.000 N 
ATOM    662  N1  A   B  53       9.801 -25.134  13.172  0.00  0.00    +0.000 NA
ATOM    663  C2  A   B  53       9.603 -24.313  12.134  0.00  0.00    +0.000 A 
ATOM    664  N3  A   B  53       9.649 -22.980  12.098  0.00  0.00    +0.000 NA
ATOM    665  C4  A   B  53       9.937 -22.480  13.314  0.00  0.00    +0.000 A 
ATOM    666  H   A   B  53      10.220 -26.396  15.288  0.00  0.00    +0.000 HD
ATOM    667  H   A   B  53      10.493 -25.053  16.302  0.00  0.00    +0.000 HD
ENDBRANCH 487 656
BRANCH 547 668
ATOM    668  N9  A   B  59      -9.329 -26.468  29.177  0.00  0.00    +0.000 N 
ATOM    669  C8  A   B  59      -8.726 -25.884  28.095  0.00  0.00    +0.000 A 
ATOM    670  N7  A   B  59      -8.542 -24.586  28.233  0.00  0.00    +0.000 NA
ATOM    671  C5  A   B  59      -9.054 -24.304  29.487  0.00  0.00    +0.000 A 
ATOM    672  C6  A   B  59      -9.157 -23.116  30.220  0.00  0.00    +0.000 A 
ATOM    673  N6  A   B  59      -8.729 -21.928  29.775  0.00  0.00    +0.000 N 
ATOM    674  N1  A   B  59      -9.719 -23.178  31.440  0.00  0.00    +0.000 NA
ATOM    675  C2  A   B  59     -10.146 -24.365  31.889  0.00  0.00    +0.000 A 
ATOM    676  N3  A   B  59     -10.103 -25.554  31.293  0.00  0.00    +0.000 NA
ATOM    677  C4  A   B  59      -9.539 -25.453  30.079  0.00  0.00    +0.000 A 
ATOM    678  H   A   B  59      -8.314 -21.856  28.885  0.00  0.00    +0.000 HD
ATOM    679  H   A   B  59      -8.829 -21.126  30.338  0.00  0.00    +0.000 HD
ENDBRANCH 547 668
BRANCH 257 680
ATOM    680  N9  A   B  30      15.637 -23.275   9.241  0.00  0.00    +0.000 N 
ATOM    681  C8  A   B  30      15.706 -24.615   8.954  0.00  0.00    +0.000 A 
ATOM    682  N7  A   B  30      16.058 -25.356   9.979  0.00  0.00    +0.000 NA
ATOM    683  C5  A   B  30      16.231 -24.446  11.010  0.00  0.00    +0.000 A 
ATOM    684  C6  A   B  30      16.603 -24.595  12.355  0.00  0.00    +0.000 A 
ATOM    685  N6  A   B  30      16.878 -25.779  12.915  0.00  0.00    +0.000 N 
ATOM    686  N1  A   B  30      16.687 -23.485  13.114  0.00  0.00    +0.000 NA
ATOM    687  C2  A   B  30      16.413 -22.304  12.552  0.00  0.00    +0.000 A 
ATOM    688  N3  A   B  30      16.050 -22.031  11.297  0.00  0.00    +0.000 NA
ATOM    689  C4  A   B  30      15.976 -23.158  10.568  0.00  0.00    +0.000 A 
ATOM    690  H   A   B  30      16.823 -26.602  12.378  0.00  0.00    +0.000 HD
ATOM    691  H   A   B  30      17.136 -25.827  13.864  0.00  0.00    +0.000 HD
ENDBRANCH 257 680
BRANCH 327 692
ATOM    692  N9  A   B  37      32.806 -32.460   0.355  0.00  0.00    +0.000 N 
ATOM    693  C8  A   B  37      33.525 -31.834   1.341  0.00  0.00    +0.000 A 
ATOM    694  N7  A   B  37      33.347 -30.534   1.379  0.00  0.00    +0.000 NA
ATOM    695  C5  A   B  37      32.449 -30.292   0.348  0.00  0.00    +0.000 A 
ATOM    696  C6  A   B  37      31.857 -29.114  -0.136  0.00  0.00    +0.000 A 
ATOM    697  N6  A   B  37      32.094 -27.904   0.379  0.00  0.00    +0.000 N 
ATOM    698  N1  A   B  37      31.007 -29.216  -1.177  0.00  0.00    +0.000 NA
ATOM    699  C2  A   B  37      30.772 -30.429  -1.695  0.00  0.00    +0.000 A 
ATOM    700  N3  A   B  37      31.265 -31.608  -1.327  0.00  0.00    +0.000 NA
ATOM    701  C4  A   B  37      32.107 -31.468  -0.289  0.00  0.00    +0.000 A 
ATOM    702  H   A   B  37      31.650 -27.112  -0.001  0.00  0.00    +0.000 HD
ATOM    703  H   A   B  37      32.712 -27.805   1.139  0.00  0.00    +0.000 HD
ENDBRANCH 327 692
BRANCH  97 704
ATOM    704  N9  A   B  14       6.422  -1.152  36.555  0.00  0.00    +0.000 N 
ATOM    705  C8  A   B  14       6.803  -2.251  37.278  0.00  0.00    +0.000 A 
ATOM    706  N7  A   B  14       5.835  -2.760  38.000  0.00  0.00    +0.000 NA
ATOM    707  C5  A   B  14       4.748  -1.939  37.735  0.00  0.00    +0.000 A 
ATOM    708  C6  A   B  14       3.424  -1.941  38.192  0.00  0.00    +0.000 A 
ATOM    709  N6  A   B  14       2.946  -2.838  39.056  0.00  0.00    +0.000 N 
ATOM    710  N1  A   B  14       2.594  -0.985  37.732  0.00  0.00    +0.000 NA
ATOM    711  C2  A   B  14       3.073  -0.086  36.870  0.00  0.00    +0.000 A 
ATOM    712  N3  A   B  14       4.298   0.022  36.366  0.00  0.00    +0.000 NA
ATOM    713  C4  A   B  14       5.095  -0.946  36.847  0.00  0.00    +0.000 A 
ATOM    714  H   A   B  14       2.006  -2.792  39.344  0.00  0.00    +0.000 HD
ATOM    715  H   A   B  14       3.534  -3.546  39.406  0.00  0.00    +0.000 HD
ENDBRANCH  97 704
BRANCH 247 716
ATOM    716  N9  A   B  29      12.124 -26.368   9.314  0.00  0.00    +0.000 N 
ATOM    717  C8  A   B  29      12.362 -27.639   9.771  0.00  0.00    +0.000 A 
ATOM    718  N7  A   B  29      12.805 -27.680  11.005  0.00  0.00    +0.000 NA
ATOM    719  C5  A   B  29      12.862 -26.347  11.388  0.00  0.00    +0.000 A 
ATOM    720  C6  A   B  29      13.249 -25.717  12.580  0.00  0.00    +0.000 A 
ATOM    721  N6  A   B  29      13.673 -26.381  13.661  0.00  0.00    +0.000 N 
ATOM    722  N1  A   B  29      13.190 -24.370  12.629  0.00  0.00    +0.000 NA
ATOM    723  C2  A   B  29      12.769 -23.706  11.548  0.00  0.00    +0.000 A 
ATOM    724  N3  A   B  29      12.374 -24.185  10.369  0.00  0.00    +0.000 NA
ATOM    725  C4  A   B  29      12.445 -25.528  10.352  0.00  0.00    +0.000 A 
ATOM    726  H   A   B  29      13.724 -27.364  13.646  0.00  0.00    +0.000 HD
ATOM    727  H   A   B  29      13.934 -25.887  14.471  0.00  0.00    +0.000 HD
ENDBRANCH 247 716
BRANCH 527 728
ATOM    728  N9  A   B  57      -3.237 -30.429  18.487  0.00  0.00    +0.000 N 
ATOM    729  C8  A   B  57      -3.334 -29.330  17.674  0.00  0.00    +0.000 A 
ATOM    730  N7  A   B  57      -2.707 -28.275  18.142  0.00  0.00    +0.000 NA
ATOM    731  C5  A   B  57      -2.162 -28.710  19.342  0.00  0.00    +0.000 A 
ATOM    732  C6  A   B  57      -1.384 -28.072  20.316  0.00  0.00    +0.000 A 
ATOM    733  N6  A   B  57      -1.006 -26.788  20.233  0.00  0.00    +0.000 N 
ATOM    734  N1  A   B  57      -1.008 -28.790  21.388  0.00  0.00    +0.000 NA
ATOM    735  C2  A   B  57      -1.388 -30.067  21.473  0.00  0.00    +0.000 A 
ATOM    736  N3  A   B  57      -2.120 -30.783  20.620  0.00  0.00    +0.000 NA
ATOM    737  C4  A   B  57      -2.480 -30.036  19.564  0.00  0.00    +0.000 A 
ATOM    738  H   A   B  57      -1.272 -26.246  19.455  0.00  0.00    +0.000 HD
ATOM    739  H   A   B  57      -0.463 -26.387  20.950  0.00  0.00    +0.000 HD
ENDBRANCH 527 728
BRANCH 267 740
ATOM    740  N9  A   B  31      19.531 -21.053  10.710  0.00  0.00    +0.000 N 
ATOM    741  C8  A   B  31      19.386 -22.069   9.800  0.00  0.00    +0.000 A 
ATOM    742  N7  A   B  31      19.535 -23.267  10.318  0.00  0.00    +0.000 NA
ATOM    743  C5  A   B  31      19.797 -23.025  11.656  0.00  0.00    +0.000 A 
ATOM    744  C6  A   B  31      20.047 -23.877  12.743  0.00  0.00    +0.000 A 
ATOM    745  N6  A   B  31      20.075 -25.211  12.639  0.00  0.00    +0.000 N 
ATOM    746  N1  A   B  31      20.274 -23.315  13.946  0.00  0.00    +0.000 NA
ATOM    747  C2  A   B  31      20.245 -21.983  14.047  0.00  0.00    +0.000 A 
ATOM    748  N3  A   B  31      20.018 -21.072  13.099  0.00  0.00    +0.000 NA
ATOM    749  C4  A   B  31      19.799 -21.665  11.912  0.00  0.00    +0.000 A 
ATOM    750  H   A   B  31      19.912 -25.640  11.768  0.00  0.00    +0.000 HD
ATOM    751  H   A   B  31      20.259 -25.763  13.433  0.00  0.00    +0.000 HD
ENDBRANCH 267 740
BRANCH 497 752
ATOM    752  N9  A   B  54       6.141 -23.290  12.286  0.00  0.00    +0.000 N 
ATOM    753  C8  A   B  54       6.406 -22.573  13.427  0.00  0.00    +0.000 A 
ATOM    754  N7  A   B  54       6.675 -23.327  14.469  0.00  0.00    +0.000 NA
ATOM    755  C5  A   B  54       6.583 -24.622  13.982  0.00  0.00    +0.000 A 
ATOM    756  C6  A   B  54       6.757 -25.878  14.584  0.00  0.00    +0.000 A 
ATOM    757  N6  A   B  54       7.074 -26.036  15.875  0.00  0.00    +0.000 N 
ATOM    758  N1  A   B  54       6.589 -26.975  13.820  0.00  0.00    +0.000 NA
ATOM    759  C2  A   B  54       6.271 -26.814  12.529  0.00  0.00    +0.000 A 
ATOM    760  N3  A   B  54       6.081 -25.687  11.844  0.00  0.00    +0.000 NA
ATOM    761  C4  A   B  54       6.254 -24.614  12.638  0.00  0.00    +0.000 A 
ATOM    762  H   A   B  54       7.185 -26.941  16.248  0.00  0.00    +0.000 HD
ATOM    763  H   A   B  54       7.197 -25.248  16.452  0.00  0.00    +0.000 HD
ENDBRANCH 497 752
BRANCH 517 764
ATOM    764  N9  A   B  56      -0.583 -29.198  14.790  0.00  0.00    +0.000 N 
ATOM    765  C8  A   B  56      -0.502 -27.835  14.648  0.00  0.00    +0.000 A 
ATOM    766  N7  A   B  56       0.071 -27.236  15.667  0.00  0.00    +0.000 NA
ATOM    767  C5  A   B  56       0.389 -28.270  16.533  0.00  0.00    +0.000 A 
ATOM    768  C6  A   B  56       1.011 -28.299  17.789  0.00  0.00    +0.000 A 
ATOM    769  N6  A   B  56       1.443 -27.198  18.420  0.00  0.00    +0.000 N 
ATOM    770  N1  A   B  56       1.175 -29.495  18.384  0.00  0.00    +0.000 NA
ATOM    771  C2  A   B  56       0.742 -30.591  17.754  0.00  0.00    +0.000 A 
ATOM    772  N3  A   B  56       0.141 -30.694  16.567  0.00  0.00    +0.000 NA
ATOM    773  C4  A   B  56      -0.008 -29.485  16.003  0.00  0.00    +0.000 A 
ATOM    774  H   A   B  56       1.332 -26.314  18.000  0.00  0.00    +0.000 HD
ATOM    775  H   A   B  56       1.872 -27.273  19.303  0.00  0.00    +0.000 HD
ENDBRANCH 517 764
BRANCH 507 776
ATOM    776  N9  A   B  55       2.583 -26.395  12.559  0.00  0.00    +0.000 N 
ATOM    777  C8  A   B  55       2.768 -25.169  13.147  0.00  0.00    +0.000 A 
ATOM    778  N7  A   B  55       3.203 -25.242  14.384  0.00  0.00    +0.000 NA
ATOM    779  C5  A   B  55       3.313 -26.603  14.624  0.00  0.00    +0.000 A 
ATOM    780  C6  A   B  55       3.721 -27.339  15.747  0.00  0.00    +0.000 A 
ATOM    781  N6  A   B  55       4.112 -26.772  16.894  0.00  0.00    +0.000 N 
ATOM    782  N1  A   B  55       3.711 -28.682  15.658  0.00  0.00    +0.000 NA
ATOM    783  C2  A   B  55       3.318 -29.247  14.511  0.00  0.00    +0.000 A 
ATOM    784  N3  A   B  55       2.913 -28.662  13.384  0.00  0.00    +0.000 NA
ATOM    785  C4  A   B  55       2.933 -27.324  13.508  0.00  0.00    +0.000 A 
ATOM    786  H   A   B  55       4.126 -25.791  16.979  0.00  0.00    +0.000 HD
ATOM    787  H   A   B  55       4.386 -27.336  17.653  0.00  0.00    +0.000 HD
ENDBRANCH 507 776
BRANCH 147 788
ATOM    788  N9  A   B  19       2.385  -3.140  30.382  0.00  0.00    +0.000 N 
ATOM    789  C8  A   B  19       1.130  -2.852  30.851  0.00  0.00    +0.000 A 
ATOM    790  N7  A   B  19       0.764  -3.600  31.865  0.00  0.00    +0.000 NA
ATOM    791  C5  A   B  19       1.849  -4.438  32.078  0.00  0.00    +0.000 A 
ATOM    792  C6  A   B  19       2.092  -5.464  33.005  0.00  0.00    +0.000 A 
ATOM    793  N6  A   B  19       1.208  -5.835  33.940  0.00  0.00    +0.000 N 
ATOM    794  N1  A   B  19       3.278  -6.104  32.944  0.00  0.00    +0.000 NA
ATOM    795  C2  A   B  19       4.160  -5.732  32.007  0.00  0.00    +0.000 A 
ATOM    796  N3  A   B  19       4.050  -4.782  31.079  0.00  0.00    +0.000 NA
ATOM    797  C4  A   B  19       2.857  -4.166  31.169  0.00  0.00    +0.000 A 
ATOM    798  H   A   B  19       0.337  -5.381  34.002  0.00  0.00    +0.000 HD
ATOM    799  H   A   B  19       1.429  -6.562  34.566  0.00  0.00    +0.000 HD
ENDBRANCH 147 788
BRANCH 167 800
ATOM    800  N9  A   B  21       2.300 -12.199  29.500  0.00  0.00    +0.000 N 
ATOM    801  C8  A   B  21       1.548 -11.281  28.814  0.00  0.00    +0.000 A 
ATOM    802  N7  A   B  21       0.387 -11.029  29.373  0.00  0.00    +0.000 NA
ATOM    803  C5  A   B  21       0.376 -11.831  30.502  0.00  0.00    +0.000 A 
ATOM    804  C6  A   B  21      -0.570 -12.025  31.518  0.00  0.00    +0.000 A 
ATOM    805  N6  A   B  21      -1.750 -11.391  31.558  0.00  0.00    +0.000 N 
ATOM    806  N1  A   B  21      -0.272 -12.897  32.499  0.00  0.00    +0.000 NA
ATOM    807  C2  A   B  21       0.906 -13.531  32.456  0.00  0.00    +0.000 A 
ATOM    808  N3  A   B  21       1.880 -13.431  31.554  0.00  0.00    +0.000 NA
ATOM    809  C4  A   B  21       1.549 -12.556  30.593  0.00  0.00    +0.000 A 
ATOM    810  H   A   B  21      -1.988 -10.749  30.851  0.00  0.00    +0.000 HD
ATOM    811  H   A   B  21      -2.379 -11.567  32.295  0.00  0.00    +0.000 HD
ENDBRANCH 167 800
BRANCH 157 812
ATOM    812  N9  A   B  20       2.928  -7.541  29.192  0.00  0.00    +0.000 N 
ATOM    813  C8  A   B  20       1.782  -6.795  29.085  0.00  0.00    +0.000 A 
ATOM    814  N7  A   B  20       0.908  -7.040  30.032  0.00  0.00    +0.000 NA
ATOM    815  C5  A   B  20       1.518  -8.009  30.814  0.00  0.00    +0.000 A 
ATOM    816  C6  A   B  20       1.112  -8.692  31.970  0.00  0.00    +0.000 A 
ATOM    817  N6  A   B  20      -0.067  -8.489  32.571  0.00  0.00    +0.000 N 
ATOM    818  N1  A   B  20       1.958  -9.599  32.496  0.00  0.00    +0.000 NA
ATOM    819  C2  A   B  20       3.134  -9.803  31.892  0.00  0.00    +0.000 A 
ATOM    820  N3  A   B  20       3.632  -9.223  30.801  0.00  0.00    +0.000 NA
ATOM    821  C4  A   B  20       2.763  -8.327  30.306  0.00  0.00    +0.000 A 
ATOM    822  H   A   B  20      -0.700  -7.831  32.203  0.00  0.00    +0.000 HD
ATOM    823  H   A   B  20      -0.301  -8.998  33.381  0.00  0.00    +0.000 HD
ENDBRANCH 157 812
BRANCH 387 824
ATOM    824  N9  A   B  43      28.793 -23.579  -5.073  0.00  0.00    +0.000 N 
ATOM    825  C8  A   B  43      29.826 -23.095  -4.314  0.00  0.00    +0.000 A 
ATOM    826  N7  A   B  43      30.776 -23.975  -4.100  0.00  0.00    +0.000 NA
ATOM    827  C5  A   B  43      30.338 -25.110  -4.764  0.00  0.00    +0.000 A 
ATOM    828  C6  A   B  43      30.892 -26.390  -4.921  0.00  0.00    +0.000 A 
ATOM    829  N6  A   B  43      32.063 -26.755  -4.391  0.00  0.00    +0.000 N 
ATOM    830  N1  A   B  43      30.200 -27.295  -5.643  0.00  0.00    +0.000 NA
ATOM    831  C2  A   B  43      29.028 -26.928  -6.169  0.00  0.00    +0.000 A 
ATOM    832  N3  A   B  43      28.403 -25.755  -6.093  0.00  0.00    +0.000 NA
ATOM    833  C4  A   B  43      29.119 -24.879  -5.367  0.00  0.00    +0.000 A 
ATOM    834  H   A   B  43      32.405 -27.667  -4.533  0.00  0.00    +0.000 HD
ATOM    835  H   A   B  43      32.584 -26.112  -3.858  0.00  0.00    +0.000 HD
ENDBRANCH 387 824
BRANCH 607 836
ATOM    836  N1  C   B  65     -30.882  -7.455  21.154  0.00  0.00    +0.000 N 
ATOM    837  C2  C   B  65     -31.167  -6.114  20.867  0.00  0.00    +0.000 A 
ATOM    838  O2  C   B  65     -30.568  -5.553  19.928  0.00  0.00    +0.000 OA
ATOM    839  N3  C   B  65     -32.082  -5.454  21.609  0.00  0.00    +0.000 NA
ATOM    840  C4  C   B  65     -32.703  -6.085  22.608  0.00  0.00    +0.000 A 
ATOM    841  N4  C   B  65     -33.598  -5.393  23.318  0.00  0.00    +0.000 N 
ATOM    842  C5  C   B  65     -32.439  -7.446  22.922  0.00  0.00    +0.000 A 
ATOM    843  C6  C   B  65     -31.530  -8.092  22.175  0.00  0.00    +0.000 A 
ATOM    844  H   C   B  65     -33.779  -4.451  23.098  0.00  0.00    +0.000 HD
ATOM    845  H   C   B  65     -34.077  -5.825  24.061  0.00  0.00    +0.000 HD
ENDBRANCH 607 836
BRANCH 577 846
ATOM    846  N1  C   B  62     -20.893 -18.866  31.763  0.00  0.00    +0.000 N 
ATOM    847  C2  C   B  62     -20.220 -17.711  31.347  0.00  0.00    +0.000 A 
ATOM    848  O2  C   B  62     -20.423 -16.650  31.957  0.00  0.00    +0.000 OA
ATOM    849  N3  C   B  62     -19.368 -17.775  30.298  0.00  0.00    +0.000 NA
ATOM    850  C4  C   B  62     -19.173 -18.934  29.668  0.00  0.00    +0.000 A 
ATOM    851  N4  C   B  62     -18.325 -18.948  28.638  0.00  0.00    +0.000 N 
ATOM    852  C5  C   B  62     -19.842 -20.125  30.070  0.00  0.00    +0.000 A 
ATOM    853  C6  C   B  62     -20.682 -20.049  31.110  0.00  0.00    +0.000 A 
ATOM    854  H   C   B  62     -18.157 -19.786  28.150  0.00  0.00    +0.000 HD
ATOM    855  H   C   B  62     -17.867 -18.120  28.366  0.00  0.00    +0.000 HD
ENDBRANCH 577 846
BRANCH 177 856
ATOM    856  N1  C   B  22       0.167 -16.378  30.394  0.00  0.00    +0.000 N 
ATOM    857  C2  C   B  22      -0.896 -16.300  31.297  0.00  0.00    +0.000 A 
ATOM    858  O2  C   B  22      -0.848 -16.970  32.340  0.00  0.00    +0.000 OA
ATOM    859  N3  C   B  22      -1.951 -15.503  31.017  0.00  0.00    +0.000 NA
ATOM    860  C4  C   B  22      -1.972 -14.791  29.889  0.00  0.00    +0.000 A 
ATOM    861  N4  C   B  22      -3.035 -14.015  29.654  0.00  0.00    +0.000 N 
ATOM    862  C5  C   B  22      -0.904 -14.845  28.951  0.00  0.00    +0.000 A 
ATOM    863  C6  C   B  22       0.134 -15.641  29.240  0.00  0.00    +0.000 A 
ATOM    864  H   C   B  22      -3.080 -13.478  28.830  0.00  0.00    +0.000 HD
ATOM    865  H   C   B  22      -3.773 -13.981  30.305  0.00  0.00    +0.000 HD
ENDBRANCH 177 856
BRANCH  27 866
ATOM    866  N1  C   B   7     -16.033 -11.948  31.055  0.00  0.00    +0.000 N 
ATOM    867  C2  C   B   7     -16.405 -13.281  31.262  0.00  0.00    +0.000 A 
ATOM    868  O2  C   B   7     -17.161 -13.552  32.205  0.00  0.00    +0.000 OA
ATOM    869  N3  C   B   7     -15.937 -14.242  30.431  0.00  0.00    +0.000 NA
ATOM    870  C4  C   B   7     -15.126 -13.914  29.424  0.00  0.00    +0.000 A 
ATOM    871  N4  C   B   7     -14.690 -14.896  28.633  0.00  0.00    +0.000 N 
ATOM    872  C5  C   B   7     -14.732 -12.565  29.191  0.00  0.00    +0.000 A 
ATOM    873  C6  C   B   7     -15.204 -11.625  30.019  0.00  0.00    +0.000 A 
ATOM    874  H   C   B   7     -14.090 -14.692  27.880  0.00  0.00    +0.000 HD
ATOM    875  H   C   B   7     -14.968 -15.825  28.803  0.00  0.00    +0.000 HD
ENDBRANCH  27 866
BRANCH  87 876
ATOM    876  N1  C   B  13       7.128  -5.395  35.162  0.00  0.00    +0.000 N 
ATOM    877  C2  C   B  13       6.137  -4.524  34.682  0.00  0.00    +0.000 A 
ATOM    878  O2  C   B  13       6.397  -3.783  33.724  0.00  0.00    +0.000 OA
ATOM    879  N3  C   B  13       4.921  -4.515  35.274  0.00  0.00    +0.000 NA
ATOM    880  C4  C   B  13       4.676  -5.324  36.305  0.00  0.00    +0.000 A 
ATOM    881  N4  C   B  13       3.462  -5.278  36.856  0.00  0.00    +0.000 N 
ATOM    882  C5  C   B  13       5.664  -6.217  36.811  0.00  0.00    +0.000 A 
ATOM    883  C6  C   B  13       6.863  -6.217  36.216  0.00  0.00    +0.000 A 
ATOM    884  H   C   B  13       2.784  -4.659  36.502  0.00  0.00    +0.000 HD
ATOM    885  H   C   B  13       3.244  -5.863  37.617  0.00  0.00    +0.000 HD
ENDBRANCH  87 876
BRANCH 397 886
ATOM    886  N1  C   B  44      27.528 -27.132  -2.751  0.00  0.00    +0.000 N 
ATOM    887  C2  C   B  44      28.563 -28.047  -2.559  0.00  0.00    +0.000 A 
ATOM    888  O2  C   B  44      28.460 -29.190  -3.037  0.00  0.00    +0.000 OA
ATOM    889  N3  C   B  44      29.661 -27.675  -1.860  0.00  0.00    +0.000 NA
ATOM    890  C4  C   B  44      29.749 -26.439  -1.356  0.00  0.00    +0.000 A 
ATOM    891  N4  C   B  44      30.848 -26.115  -0.671  0.00  0.00    +0.000 N 
ATOM    892  C5  C   B  44      28.710 -25.487  -1.537  0.00  0.00    +0.000 A 
ATOM    893  C6  C   B  44      27.631 -25.868  -2.234  0.00  0.00    +0.000 A 
ATOM    894  H   C   B  44      31.565 -26.778  -0.548  0.00  0.00    +0.000 HD
ATOM    895  H   C   B  44      30.941 -25.213  -0.288  0.00  0.00    +0.000 HD
ENDBRANCH 397 886
BRANCH 537 896
ATOM    896  N1  C   B  58      -5.374 -29.674  22.877  0.00  0.00    +0.000 N 
ATOM    897  C2  C   B  58      -4.524 -28.928  23.702  0.00  0.00    +0.000 A 
ATOM    898  O2  C   B  58      -4.234 -29.375  24.828  0.00  0.00    +0.000 OA
ATOM    899  N3  C   B  58      -4.037 -27.744  23.263  0.00  0.00    +0.000 NA
ATOM    900  C4  C   B  58      -4.368 -27.296  22.050  0.00  0.00    +0.000 A 
ATOM    901  N4  C   B  58      -3.865 -26.123  21.661  0.00  0.00    +0.000 N 
ATOM    902  C5  C   B  58      -5.229 -28.032  21.190  0.00  0.00    +0.000 A 
ATOM    903  C6  C   B  58      -5.705 -29.203  21.634  0.00  0.00    +0.000 A 
ATOM    904  H   C   B  58      -4.088 -25.762  20.773  0.00  0.00    +0.000 HD
ATOM    905  H   C   B  58      -3.271 -25.618  22.262  0.00  0.00    +0.000 HD
ENDBRANCH 537 896
BRANCH 117 906
ATOM    906  N1  C   B  16       2.557   6.967  37.943  0.00  0.00    +0.000 N 
ATOM    907  C2  C   B  16       2.497   8.054  37.072  0.00  0.00    +0.000 A 
ATOM    908  O2  C   B  16       1.724   8.992  37.320  0.00  0.00    +0.000 OA
ATOM    909  N3  C   B  16       3.292   8.066  35.977  0.00  0.00    +0.000 NA
ATOM    910  C4  C   B  16       4.114   7.045  35.728  0.00  0.00    +0.000 A 
ATOM    911  N4  C   B  16       4.876   7.099  34.637  0.00  0.00    +0.000 N 
ATOM    912  C5  C   B  16       4.193   5.928  36.597  0.00  0.00    +0.000 A 
ATOM    913  C6  C   B  16       3.411   5.929  37.680  0.00  0.00    +0.000 A 
ATOM    914  H   C   B  16       4.819   7.876  34.035  0.00  0.00    +0.000 HD
ATOM    915  H   C   B  16       5.496   6.362  34.433  0.00  0.00    +0.000 HD
ENDBRANCH 117 906
BRANCH 127 916
ATOM    916  N1  C   B  17       0.785   5.344  34.051  0.00  0.00    +0.000 N 
ATOM    917  C2  C   B  17       1.701   5.196  33.005  0.00  0.00    +0.000 A 
ATOM    918  O2  C   B  17       1.541   5.851  31.958  0.00  0.00    +0.000 OA
ATOM    919  N3  C   B  17       2.745   4.346  33.155  0.00  0.00    +0.000 NA
ATOM    920  C4  C   B  17       2.891   3.655  34.288  0.00  0.00    +0.000 A 
ATOM    921  N4  C   B  17       3.934   2.825  34.388  0.00  0.00    +0.000 N 
ATOM    922  C5  C   B  17       1.971   3.790  35.366  0.00  0.00    +0.000 A 
ATOM    923  C6  C   B  17       0.946   4.636  35.208  0.00  0.00    +0.000 A 
ATOM    924  H   C   B  17       4.566   2.737  33.639  0.00  0.00    +0.000 HD
ATOM    925  H   C   B  17       4.070   2.302  35.211  0.00  0.00    +0.000 HD
ENDBRANCH 127 916
BRANCH 357 926
ATOM    926  N1  C   B  40      39.492 -22.774 -10.673  0.00  0.00    +0.000 N 
ATOM    927  C2  C   B  40      38.800 -21.657 -11.162  0.00  0.00    +0.000 A 
ATOM    928  O2  C   B  40      39.236 -20.518 -10.932  0.00  0.00    +0.000 OA
ATOM    929  N3  C   B  40      37.669 -21.843 -11.880  0.00  0.00    +0.000 NA
ATOM    930  C4  C   B  40      37.224 -23.080 -12.120  0.00  0.00    +0.000 A 
ATOM    931  N4  C   B  40      36.100 -23.212 -12.833  0.00  0.00    +0.000 N 
ATOM    932  C5  C   B  40      37.907 -24.230 -11.639  0.00  0.00    +0.000 A 
ATOM    933  C6  C   B  40      39.031 -24.037 -10.928  0.00  0.00    +0.000 A 
ATOM    934  H   C   B  40      35.630 -22.413 -13.164  0.00  0.00    +0.000 HD
ATOM    935  H   C   B  40      35.742 -24.109 -13.027  0.00  0.00    +0.000 HD
ENDBRANCH 357 926
BRANCH 187 936
ATOM    936  N1  U   B  23      -1.273 -25.117  27.111  0.00  0.00    +0.000 N 
ATOM    937  C2  U   B  23      -1.830 -26.125  26.345  0.00  0.00    +0.000 A 
ATOM    938  O2  U   B  23      -2.122 -27.219  26.799  0.00  0.00    +0.000 OA
ATOM    939  N3  U   B  23      -2.029 -25.811  25.022  0.00  0.00    +0.000 N 
ATOM    940  C4  U   B  23      -1.741 -24.618  24.397  0.00  0.00    +0.000 A 
ATOM    941  O4  U   B  23      -1.982 -24.487  23.197  0.00  0.00    +0.000 OA
ATOM    942  C5  U   B  23      -1.175 -23.624  25.254  0.00  0.00    +0.000 A 
ATOM    943  C6  U   B  23      -0.969 -23.900  26.550  0.00  0.00    +0.000 A 
ATOM    944  H   U   B  23      -2.421 -26.517  24.459  0.00  0.00    +0.000 HD
ENDBRANCH 187 936
BRANCH 217 945
ATOM    945  N1  U   B  26       4.715 -32.694  18.487  0.00  0.00    +0.000 N 
ATOM    946  C2  U   B  26       4.253 -31.801  17.534  0.00  0.00    +0.000 A 
ATOM    947  O2  U   B  26       3.640 -32.150  16.541  0.00  0.00    +0.000 OA
ATOM    948  N3  U   B  26       4.536 -30.479  17.786  0.00  0.00    +0.000 N 
ATOM    949  C4  U   B  26       5.216 -29.970  18.869  0.00  0.00    +0.000 A 
ATOM    950  O4  U   B  26       5.393 -28.755  18.954  0.00  0.00    +0.000 OA
ATOM    951  C5  U   B  26       5.659 -30.956  19.808  0.00  0.00    +0.000 A 
ATOM    952  C6  U   B  26       5.399 -32.250  19.591  0.00  0.00    +0.000 A 
ATOM    953  H   U   B  26       4.218 -29.827  17.120  0.00  0.00    +0.000 HD
ENDBRANCH 217 945
BRANCH 227 954
ATOM    954  N1  U   B  27       6.700 -31.879  14.317  0.00  0.00    +0.000 N 
ATOM    955  C2  U   B  27       6.519 -30.566  13.916  0.00  0.00    +0.000 A 
ATOM    956  O2  U   B  27       5.987 -30.260  12.865  0.00  0.00    +0.000 OA
ATOM    957  N3  U   B  27       6.986 -29.617  14.797  0.00  0.00    +0.000 N 
ATOM    958  C4  U   B  27       7.602 -29.844  16.008  0.00  0.00    +0.000 A 
ATOM    959  O4  U   B  27       7.967 -28.886  16.687  0.00  0.00    +0.000 OA
ATOM    960  C5  U   B  27       7.751 -31.226  16.350  0.00  0.00    +0.000 A 
ATOM    961  C6  U   B  27       7.306 -32.173  15.513  0.00  0.00    +0.000 A 
ATOM    962  H   U   B  27       6.867 -28.676  14.534  0.00  0.00    +0.000 HD
ENDBRANCH 227 954
BRANCH 287 963
ATOM    963  N1  U   B  33      27.797 -22.915  13.666  0.00  0.00    +0.000 N 
ATOM    964  C2  U   B  33      27.546 -24.265  13.851  0.00  0.00    +0.000 A 
ATOM    965  O2  U   B  33      27.878 -24.871  14.856  0.00  0.00    +0.000 OA
ATOM    966  N3  U   B  33      26.885 -24.884  12.815  0.00  0.00    +0.000 N 
ATOM    967  C4  U   B  33      26.463 -24.303  11.639  0.00  0.00    +0.000 A 
ATOM    968  O4  U   B  33      25.885 -24.993  10.799  0.00  0.00    +0.000 OA
ATOM    969  C5  U   B  33      26.762 -22.910  11.520  0.00  0.00    +0.000 A 
ATOM    970  C6  U   B  33      27.404 -22.281  12.514  0.00  0.00    +0.000 A 
ATOM    971  H   U   B  33      26.693 -25.843  12.926  0.00  0.00    +0.000 HD
ENDBRANCH 287 963
BRANCH  57 972
ATOM    972  N1  U   B  10      -2.393 -14.853  36.705  0.00  0.00    +0.000 N 
ATOM    973  C2  U   B  10      -1.653 -14.663  35.546  0.00  0.00    +0.000 A 
ATOM    974  O2  U   B  10      -0.740 -15.397  35.214  0.00  0.00    +0.000 OA
ATOM    975  N3  U   B  10      -2.019 -13.576  34.789  0.00  0.00    +0.000 N 
ATOM    976  C4  U   B  10      -3.027 -12.681  35.063  0.00  0.00    +0.000 A 
ATOM    977  O4  U   B  10      -3.235 -11.752  34.283  0.00  0.00    +0.000 OA
ATOM    978  C5  U   B  10      -3.747 -12.945  36.272  0.00  0.00    +0.000 A 
ATOM    979  C6  U   B  10      -3.413 -13.998  37.032  0.00  0.00    +0.000 A 
ATOM    980  H   U   B  10      -1.506 -13.422  33.963  0.00  0.00    +0.000 HD
ENDBRANCH  57 972
BRANCH 197 981
ATOM    981  N1  U   B  24       1.284 -28.730  25.857  0.00  0.00    +0.000 N 
ATOM    982  C2  U   B  24       0.589 -29.118  24.726  0.00  0.00    +0.000 A 
ATOM    983  O2  U   B  24       0.099 -30.226  24.600  0.00  0.00    +0.000 OA
ATOM    984  N3  U   B  24       0.489 -28.159  23.743  0.00  0.00    +0.000 N 
ATOM    985  C4  U   B  24       0.996 -26.881  23.777  0.00  0.00    +0.000 A 
ATOM    986  O4  U   B  24       0.821 -26.136  22.811  0.00  0.00    +0.000 OA
ATOM    987  C5  U   B  24       1.699 -26.555  24.979  0.00  0.00    +0.000 A 
ATOM    988  C6  U   B  24       1.815 -27.467  25.952  0.00  0.00    +0.000 A 
ATOM    989  H   U   B  24       0.002 -28.416  22.927  0.00  0.00    +0.000 HD
ENDBRANCH 197 981
BRANCH  67 990
ATOM    990  N1  U   B  11       2.182 -13.138  36.107  0.00  0.00    +0.000 N 
ATOM    991  C2  U   B  11       2.414 -12.391  34.961  0.00  0.00    +0.000 A 
ATOM    992  O2  U   B  11       3.343 -12.607  34.203  0.00  0.00    +0.000 OA
ATOM    993  N3  U   B  11       1.519 -11.374  34.733  0.00  0.00    +0.000 N 
ATOM    994  C4  U   B  11       0.438 -11.035  35.516  0.00  0.00    +0.000 A 
ATOM    995  O4  U   B  11      -0.278 -10.091  35.180  0.00  0.00    +0.000 OA
ATOM    996  C5  U   B  11       0.266 -11.853  36.679  0.00  0.00    +0.000 A 
ATOM    997  C6  U   B  11       1.122 -12.853  36.927  0.00  0.00    +0.000 A 
ATOM    998  H   U   B  11       1.666 -10.831  33.925  0.00  0.00    +0.000 HD
ENDBRANCH  67 990
BRANCH 587 999
ATOM    999  N1  U   B  63     -23.369 -14.955  29.944  0.00  0.00    +0.000 N 
ATOM   1000  C2  U   B  63     -22.405 -14.093  29.446  0.00  0.00    +0.000 A 
ATOM   1001  O2  U   B  63     -22.359 -12.914  29.739  0.00  0.00    +0.000 OA
ATOM   1002  N3  U   B  63     -21.495 -14.666  28.592  0.00  0.00    +0.000 N 
ATOM   1003  C4  U   B  63     -21.449 -15.985  28.192  0.00  0.00    +0.000 A 
ATOM   1004  O4  U   B  63     -20.568 -16.347  27.417  0.00  0.00    +0.000 OA
ATOM   1005  C5  U   B  63     -22.478 -16.807  28.749  0.00  0.00    +0.000 A 
ATOM   1006  C6  U   B  63     -23.380 -16.276  29.586  0.00  0.00    +0.000 A 
ATOM   1007  H   U   B  63     -20.801 -14.071  28.226  0.00  0.00    +0.000 HD
ENDBRANCH 587 999
BRANCH  771008
ATOM   1008  N1  U   B  12       5.651  -9.857  35.343  0.00  0.00    +0.000 N 
ATOM   1009  C2  U   B  12       5.258  -8.888  34.433  0.00  0.00    +0.000 A 
ATOM   1010  O2  U   B  12       5.933  -8.571  33.470  0.00  0.00    +0.000 OA
ATOM   1011  N3  U   B  12       4.043  -8.303  34.692  0.00  0.00    +0.000 N 
ATOM   1012  C4  U   B  12       3.203  -8.581  35.745  0.00  0.00    +0.000 A 
ATOM   1013  O4  U   B  12       2.140  -7.968  35.846  0.00  0.00    +0.000 OA
ATOM   1014  C5  U   B  12       3.677  -9.590  36.641  0.00  0.00    +0.000 A 
ATOM   1015  C6  U   B  12       4.857 -10.179  36.414  0.00  0.00    +0.000 A 
ATOM   1016  H   U   B  12       3.742  -7.613  34.058  0.00  0.00    +0.000 HD
ENDBRANCH  771008
BRANCH 2771017
ATOM   1017  N9  A   B  32      23.754 -20.819  12.706  0.00  0.00    +0.000 N 
ATOM   1018  C8  A   B  32      23.382 -21.138  11.425  0.00  0.00    +0.000 A 
ATOM   1019  N7  A   B  32      23.187 -22.424  11.239  0.00  0.00    +0.000 NA
ATOM   1020  C5  A   B  32      23.451 -22.990  12.477  0.00  0.00    +0.000 A 
ATOM   1021  C6  A   B  32      23.423 -24.313  12.941  0.00  0.00    +0.000 A 
ATOM   1022  N1  A   B  32      23.742 -24.535  14.229  0.00  0.00    +0.000 NA
ATOM   1023  C2  A   B  32      24.063 -23.493  15.000  0.00  0.00    +0.000 A 
ATOM   1024  N3  A   B  32      24.123 -22.199  14.682  0.00  0.00    +0.000 NA
ATOM   1025  C4  A   B  32      23.803 -22.012  13.390  0.00  0.00    +0.000 A 
BRANCH10211026
ATOM   1026  N6  A   B  32      23.101 -25.356  12.166  0.00  0.00    +0.000 N 
ATOM   1027  H   A   B  32      22.865 -25.213  11.221  0.00  0.00    +0.000 HD
ATOM   1028  H   A   B  32      23.100 -26.266  12.541  0.00  0.00    +0.000 HD
ENDBRANCH10211026
ENDBRANCH 2771017
BRANCH 2371029
ATOM   1029  N1  U   B  28       9.168 -29.538  11.095  0.00  0.00    +0.000 N 
ATOM   1030  C2  U   B  28       9.238 -28.187  11.397  0.00  0.00    +0.000 A 
ATOM   1031  O2  U   B  28       8.855 -27.315  10.637  0.00  0.00    +0.000 OA
ATOM   1032  N3  U   B  28       9.775 -27.891  12.629  0.00  0.00    +0.000 N 
ATOM   1033  C4  U   B  28      10.239 -28.788  13.567  0.00  0.00    +0.000 A 
ATOM   1034  O4  U   B  28      10.695 -28.366  14.629  0.00  0.00    +0.000 OA
ATOM   1035  C5  U   B  28      10.135 -30.163  13.180  0.00  0.00    +0.000 A 
ATOM   1036  C6  U   B  28       9.616 -30.482  11.987  0.00  0.00    +0.000 A 
ATOM   1037  H   U   B  28       9.834 -26.937  12.866  0.00  0.00    +0.000 HD
ENDBRANCH 2371029
BRANCH 5671038
ATOM   1038  N9  A   B  61     -17.804 -22.180  32.950  0.00  0.00    +0.000 N 
ATOM   1039  C8  A   B  61     -17.184 -22.679  31.835  0.00  0.00    +0.000 A 
ATOM   1040  N7  A   B  61     -16.566 -21.766  31.122  0.00  0.00    +0.000 NA
ATOM   1041  C5  A   B  61     -16.793 -20.588  31.817  0.00  0.00    +0.000 A 
ATOM   1042  C6  A   B  61     -16.402 -19.260  31.583  0.00  0.00    +0.000 A 
ATOM   1043  N1  A   B  61     -16.794 -18.326  32.466  0.00  0.00    +0.000 NA
ATOM   1044  C2  A   B  61     -17.529 -18.708  33.520  0.00  0.00    +0.000 A 
ATOM   1045  N3  A   B  61     -17.959 -19.923  33.848  0.00  0.00    +0.000 NA
ATOM   1046  C4  A   B  61     -17.552 -20.829  32.946  0.00  0.00    +0.000 A 
BRANCH10421047
ATOM   1047  N6  A   B  61     -15.667 -18.880  30.530  0.00  0.00    +0.000 N 
ATOM   1048  H   A   B  61     -15.369 -19.548  29.871  0.00  0.00    +0.000 HD
ATOM   1049  H   A   B  61     -15.425 -17.933  30.415  0.00  0.00    +0.000 HD
ENDBRANCH10421047
ENDBRANCH 5671038
BRANCH 2071050
ATOM   1050  N1  U   B  25       3.014 -31.599  22.669  0.00  0.00    +0.000 N 
ATOM   1051  C2  U   B  25       2.358 -31.352  21.475  0.00  0.00    +0.000 A 
ATOM   1052  O2  U   B  25       1.768 -32.217  20.854  0.00  0.00    +0.000 OA
ATOM   1053  N3  U   B  25       2.416 -30.051  21.032  0.00  0.00    +0.000 N 
ATOM   1054  C4  U   B  25       3.049 -28.993  21.648  0.00  0.00    +0.000 A 
ATOM   1055  O4  U   B  25       3.012 -27.880  21.124  0.00  0.00    +0.000 OA
ATOM   1056  C5  U   B  25       3.701 -29.328  22.876  0.00  0.00    +0.000 A 
ATOM   1057  C6  U   B  25       3.663 -30.587  23.333  0.00  0.00    +0.000 A 
ATOM   1058  H   U   B  25       1.956 -29.855  20.184  0.00  0.00    +0.000 HD
ENDBRANCH 2071050
BRANCH 4271059
ATOM   1059  N1  U   B  47      26.856 -33.339   9.646  0.00  0.00    +0.000 N 
ATOM   1060  C2  U   B  47      27.577 -32.288  10.191  0.00  0.00    +0.000 A 
ATOM   1061  O2  U   B  47      28.430 -32.445  11.044  0.00  0.00    +0.000 OA
ATOM   1062  N3  U   B  47      27.259 -31.043   9.702  0.00  0.00    +0.000 N 
ATOM   1063  C4  U   B  47      26.314 -30.747   8.742  0.00  0.00    +0.000 A 
ATOM   1064  O4  U   B  47      26.144 -29.576   8.407  0.00  0.00    +0.000 OA
ATOM   1065  C5  U   B  47      25.614 -31.883   8.227  0.00  0.00    +0.000 A 
ATOM   1066  C6  U   B  47      25.903 -33.109   8.685  0.00  0.00    +0.000 A 
ATOM   1067  H   U   B  47      27.759 -30.282  10.077  0.00  0.00    +0.000 HD
ENDBRANCH 4271059
BRANCH 1071068
ATOM   1068  N1  U   B  15       7.397   5.753  37.086  0.00  0.00    +0.000 N 
ATOM   1069  C2  U   B  15       6.855   6.711  36.252  0.00  0.00    +0.000 A 
ATOM   1070  O2  U   B  15       6.074   7.564  36.635  0.00  0.00    +0.000 OA
ATOM   1071  N3  U   B  15       7.246   6.631  34.942  0.00  0.00    +0.000 N 
ATOM   1072  C4  U   B  15       8.125   5.721  34.394  0.00  0.00    +0.000 A 
ATOM   1073  O4  U   B  15       8.385   5.780  33.201  0.00  0.00    +0.000 OA
ATOM   1074  C5  U   B  15       8.653   4.769  35.318  0.00  0.00    +0.000 A 
ATOM   1075  C6  U   B  15       8.279   4.816  36.605  0.00  0.00    +0.000 A 
ATOM   1076  H   U   B  15       6.858   7.294  34.326  0.00  0.00    +0.000 HD
ENDBRANCH 1071068
BRANCH 5971077
ATOM   1077  N9  A   B  64     -24.615 -12.296  26.345  0.00  0.00    +0.000 N 
ATOM   1078  C8  A   B  64     -24.941 -13.624  26.388  0.00  0.00    +0.000 A 
ATOM   1079  N7  A   B  64     -23.990 -14.413  25.951  0.00  0.00    +0.000 NA
ATOM   1080  C5  A   B  64     -22.965 -13.545  25.602  0.00  0.00    +0.000 A 
ATOM   1081  C6  A   B  64     -21.677 -13.753  25.072  0.00  0.00    +0.000 A 
ATOM   1082  N1  A   B  64     -20.909 -12.674  24.841  0.00  0.00    +0.000 NA
ATOM   1083  C2  A   B  64     -21.404 -11.468  25.125  0.00  0.00    +0.000 A 
ATOM   1084  N3  A   B  64     -22.595 -11.141  25.622  0.00  0.00    +0.000 NA
ATOM   1085  C4  A   B  64     -23.336 -12.238  25.840  0.00  0.00    +0.000 A 
BRANCH10811086
ATOM   1086  N6  A   B  64     -21.183 -14.965  24.787  0.00  0.00    +0.000 N 
ATOM   1087  H   A   B  64     -20.275 -15.052  24.418  0.00  0.00    +0.000 HD
ATOM   1088  H   A   B  64     -21.728 -15.769  24.947  0.00  0.00    +0.000 HD
ENDBRANCH10811086
ENDBRANCH 5971077
BRANCH 2971089
ATOM   1089  N9  A   B  34      30.899 -26.265  12.797  0.00  0.00    +0.000 N 
ATOM   1090  C8  A   B  34      30.519 -25.135  12.124  0.00  0.00    +0.000 A 
ATOM   1091  N7  A   B  34      29.629 -25.362  11.186  0.00  0.00    +0.000 NA
ATOM   1092  C5  A   B  34      29.413 -26.730  11.245  0.00  0.00    +0.000 A 
ATOM   1093  C6  A   B  34      28.584 -27.595  10.515  0.00  0.00    +0.000 A 
ATOM   1094  N1  A   B  34      28.608 -28.906  10.827  0.00  0.00    +0.000 NA
ATOM   1095  C2  A   B  34      29.413 -29.316  11.813  0.00  0.00    +0.000 A 
ATOM   1096  N3  A   B  34      30.237 -28.598  12.576  0.00  0.00    +0.000 NA
ATOM   1097  C4  A   B  34      30.188 -27.299  12.234  0.00  0.00    +0.000 A 
BRANCH10931098
ATOM   1098  N6  A   B  34      27.780 -27.191   9.526  0.00  0.00    +0.000 N 
ATOM   1099  H   A   B  34      27.220 -27.845   9.049  0.00  0.00    +0.000 HD
ATOM   1100  H   A   B  34      27.748 -26.240   9.275  0.00  0.00    +0.000 HD
ENDBRANCH10931098
ENDBRANCH 2971089
BRANCH 4171101
ATOM   1101  N1  U   B  46      26.742 -33.412   4.654  0.00  0.00    +0.000 N 
ATOM   1102  C2  U   B  46      27.768 -32.912   5.440  0.00  0.00    +0.000 A 
ATOM   1103  O2  U   B  46      28.559 -33.628   6.028  0.00  0.00    +0.000 OA
ATOM   1104  N3  U   B  46      27.833 -31.541   5.515  0.00  0.00    +0.000 N 
ATOM   1105  C4  U   B  46      26.997 -30.636   4.898  0.00  0.00    +0.000 A 
ATOM   1106  O4  U   B  46      27.185 -29.432   5.063  0.00  0.00    +0.000 OA
ATOM   1107  C5  U   B  46      25.966 -31.226   4.104  0.00  0.00    +0.000 A 
ATOM   1108  C6  U   B  46      25.877 -32.561   4.012  0.00  0.00    +0.000 A 
ATOM   1109  H   U   B  46      28.555 -31.165   6.069  0.00  0.00    +0.000 HD
ENDBRANCH 4171101
BRANCH 4071110
ATOM   1110  N1  U   B  45      27.113 -31.886   0.420  0.00  0.00    +0.000 N 
ATOM   1111  C2  U   B  45      28.145 -32.424   1.176  0.00  0.00    +0.000 A 
ATOM   1112  O2  U   B  45      28.394 -33.616   1.212  0.00  0.00    +0.000 OA
ATOM   1113  N3  U   B  45      28.876 -31.507   1.894  0.00  0.00    +0.000 N 
ATOM   1114  C4  U   B  45      28.691 -30.139   1.939  0.00  0.00    +0.000 A 
ATOM   1115  O4  U   B  45      29.436 -29.452   2.635  0.00  0.00    +0.000 OA
ATOM   1116  C5  U   B  45      27.614 -29.662   1.133  0.00  0.00    +0.000 A 
ATOM   1117  C6  U   B  45      26.881 -30.530   0.417  0.00  0.00    +0.000 A 
ATOM   1118  H   U   B  45      29.614 -31.866   2.437  0.00  0.00    +0.000 HD
ENDBRANCH 4071110
BRANCH 4371119
ATOM   1119  N9  A   B  48      26.249 -31.520  14.059  0.00  0.00    +0.000 N 
ATOM   1120  C8  A   B  48      25.405 -31.884  13.043  0.00  0.00    +0.000 A 
ATOM   1121  N7  A   B  48      25.048 -30.883  12.272  0.00  0.00    +0.000 NA
ATOM   1122  C5  A   B  48      25.702 -29.788  12.818  0.00  0.00    +0.000 A 
ATOM   1123  C6  A   B  48      25.737 -28.433  12.462  0.00  0.00    +0.000 A 
ATOM   1124  N1  A   B  48      26.484 -27.602  13.213  0.00  0.00    +0.000 NA
ATOM   1125  C2  A   B  48      27.153 -28.108  14.254  0.00  0.00    +0.000 A 
ATOM   1126  N3  A   B  48      27.200 -29.367  14.688  0.00  0.00    +0.000 NA
ATOM   1127  C4  A   B  48      26.446 -30.165  13.918  0.00  0.00    +0.000 A 
BRANCH11231128
ATOM   1128  N6  A   B  48      25.067 -27.920  11.421  0.00  0.00    +0.000 N 
ATOM   1129  H   A   B  48      24.513 -28.505  10.855  0.00  0.00    +0.000 HD
ATOM   1130  H   A   B  48      25.129 -26.958  11.222  0.00  0.00    +0.000 HD
ENDBRANCH11231128
ENDBRANCH 4371119
BRANCH 4471131
ATOM   1131  N1  U   B  49      24.511 -28.365  17.154  0.00  0.00    +0.000 N 
ATOM   1132  C2  U   B  49      24.492 -27.126  16.539  0.00  0.00    +0.000 A 
ATOM   1133  O2  U   B  49      25.035 -26.142  17.009  0.00  0.00    +0.000 OA
ATOM   1134  N3  U   B  49      23.806 -27.076  15.348  0.00  0.00    +0.000 N 
ATOM   1135  C4  U   B  49      23.156 -28.115  14.722  0.00  0.00    +0.000 A 
ATOM   1136  O4  U   B  49      22.585 -27.911  13.652  0.00  0.00    +0.000 OA
ATOM   1137  C5  U   B  49      23.221 -29.362  15.420  0.00  0.00    +0.000 A 
ATOM   1138  C6  U   B  49      23.881 -29.441  16.582  0.00  0.00    +0.000 A 
ATOM   1139  H   U   B  49      23.777 -26.203  14.894  0.00  0.00    +0.000 HD
ENDBRANCH 4471131
BRANCH 3771140
ATOM   1140  N1  U   B  42      31.466 -21.045  -6.992  0.00  0.00    +0.000 N 
ATOM   1141  C2  U   B  42      30.613 -21.806  -7.776  0.00  0.00    +0.000 A 
ATOM   1142  O2  U   B  42      29.622 -21.349  -8.317  0.00  0.00    +0.000 OA
ATOM   1143  N3  U   B  42      30.966 -23.128  -7.906  0.00  0.00    +0.000 N 
ATOM   1144  C4  U   B  42      32.059 -23.754  -7.345  0.00  0.00    +0.000 A 
ATOM   1145  O4  U   B  42      32.239 -24.953  -7.557  0.00  0.00    +0.000 OA
ATOM   1146  C5  U   B  42      32.890 -22.903  -6.549  0.00  0.00    +0.000 A 
ATOM   1147  C6  U   B  42      32.572 -21.609  -6.405  0.00  0.00    +0.000 A 
ATOM   1148  H   U   B  42      30.375 -23.688  -8.459  0.00  0.00    +0.000 HD
ENDBRANCH 3771140
BRANCH 4571149
ATOM   1149  N1  U   B  50      21.709 -24.843  18.421  0.00  0.00    +0.000 N 
ATOM   1150  C2  U   B  50      21.394 -24.105  17.294  0.00  0.00    +0.000 A 
ATOM   1151  O2  U   B  50      21.609 -22.909  17.203  0.00  0.00    +0.000 OA
ATOM   1152  N3  U   B  50      20.814 -24.818  16.271  0.00  0.00    +0.000 N 
ATOM   1153  C4  U   B  50      20.525 -26.165  16.259  0.00  0.00    +0.000 A 
ATOM   1154  O4  U   B  50      20.004 -26.662  15.263  0.00  0.00    +0.000 OA
ATOM   1155  C5  U   B  50      20.880 -26.856  17.459  0.00  0.00    +0.000 A 
ATOM   1156  C6  U   B  50      21.445 -26.188  18.472  0.00  0.00    +0.000 A 
ATOM   1157  H   U   B  50      20.580 -24.311  15.460  0.00  0.00    +0.000 HD
ENDBRANCH 4571149
BRANCH 3671158
ATOM   1158  N1  U   B  41      35.845 -21.125  -8.529  0.00  0.00    +0.000 N 
ATOM   1159  C2  U   B  41      34.682 -21.067  -9.277  0.00  0.00    +0.000 A 
ATOM   1160  O2  U   B  41      34.092 -20.028  -9.510  0.00  0.00    +0.000 OA
ATOM   1161  N3  U   B  41      34.228 -22.277  -9.745  0.00  0.00    +0.000 N 
ATOM   1162  C4  U   B  41      34.807 -23.512  -9.549  0.00  0.00    +0.000 A 
ATOM   1163  O4  U   B  41      34.278 -24.513 -10.038  0.00  0.00    +0.000 OA
ATOM   1164  C5  U   B  41      36.007 -23.487  -8.770  0.00  0.00    +0.000 A 
ATOM   1165  C6  U   B  41      36.475 -22.325  -8.300  0.00  0.00    +0.000 A 
ATOM   1166  H   U   B  41      33.400 -22.259 -10.278  0.00  0.00    +0.000 HD
ENDBRANCH 3671158
BRANCH 4671167
ATOM   1167  N1  U   B  51      17.982 -22.322  17.764  0.00  0.00    +0.000 N 
ATOM   1168  C2  U   B  51      17.647 -22.279  16.422  0.00  0.00    +0.000 A 
ATOM   1169  O2  U   B  51      17.670 -21.258  15.753  0.00  0.00    +0.000 OA
ATOM   1170  N3  U   B  51      17.266 -23.482  15.878  0.00  0.00    +0.000 N 
ATOM   1171  C4  U   B  51      17.196 -24.698  16.522  0.00  0.00    +0.000 A 
ATOM   1172  O4  U   B  51      16.842 -25.696  15.900  0.00  0.00    +0.000 OA
ATOM   1173  C5  U   B  51      17.564 -24.662  17.904  0.00  0.00    +0.000 A 
ATOM   1174  C6  U   B  51      17.937 -23.506  18.461  0.00  0.00    +0.000 A 
ATOM   1175  H   U   B  51      17.016 -23.474  14.926  0.00  0.00    +0.000 HD
ENDBRANCH 4671167
BRANCH 3471176
ATOM   1176  N1  U   B  39      42.117 -32.403  -8.270  0.00  0.00    +0.000 N 
ATOM   1177  C2  U   B  39      43.432 -32.705  -8.571  0.00  0.00    +0.000 A 
ATOM   1178  O2  U   B  39      44.380 -32.168  -8.024  0.00  0.00    +0.000 OA
ATOM   1179  N3  U   B  39      43.606 -33.660  -9.537  0.00  0.00    +0.000 N 
ATOM   1180  C4  U   B  39      42.621 -34.336 -10.220  0.00  0.00    +0.000 A 
ATOM   1181  O4  U   B  39      42.940 -35.173 -11.063  0.00  0.00    +0.000 OA
ATOM   1182  C5  U   B  39      41.292 -33.968  -9.859  0.00  0.00    +0.000 A 
ATOM   1183  C6  U   B  39      41.090 -33.038  -8.916  0.00  0.00    +0.000 A 
ATOM   1184  H   U   B  39      44.536 -33.887  -9.768  0.00  0.00    +0.000 HD
ENDBRANCH 3471176
BRANCH 4771185
ATOM   1185  N1  U   B  52      14.074 -20.716  15.787  0.00  0.00    +0.000 N 
ATOM   1186  C2  U   B  52      13.783 -21.488  14.674  0.00  0.00    +0.000 A 
ATOM   1187  O2  U   B  52      13.640 -21.019  13.557  0.00  0.00    +0.000 OA
ATOM   1188  N3  U   B  52      13.665 -22.837  14.917  0.00  0.00    +0.000 N 
ATOM   1189  C4  U   B  52      13.806 -23.476  16.129  0.00  0.00    +0.000 A 
ATOM   1190  O4  U   B  52      13.670 -24.699  16.185  0.00  0.00    +0.000 OA
ATOM   1191  C5  U   B  52      14.104 -22.609  17.230  0.00  0.00    +0.000 A 
ATOM   1192  C6  U   B  52      14.225 -21.292  17.025  0.00  0.00    +0.000 A 
ATOM   1193  H   U   B  52      13.458 -23.407  14.141  0.00  0.00    +0.000 HD
ENDBRANCH 4771185
BRANCH 3371194
ATOM   1194  N1  U   B  38      33.909 -30.772  -4.068  0.00  0.00    +0.000 N 
ATOM   1195  C2  U   B  38      33.357 -29.509  -4.210  0.00  0.00    +0.000 A 
ATOM   1196  O2  U   B  38      32.595 -29.215  -5.112  0.00  0.00    +0.000 OA
ATOM   1197  N3  U   B  38      33.732 -28.599  -3.251  0.00  0.00    +0.000 N 
ATOM   1198  C4  U   B  38      34.584 -28.815  -2.189  0.00  0.00    +0.000 A 
ATOM   1199  O4  U   B  38      34.823 -27.893  -1.413  0.00  0.00    +0.000 OA
ATOM   1200  C5  U   B  38      35.111 -30.144  -2.109  0.00  0.00    +0.000 A 
ATOM   1201  C6  U   B  38      34.762 -31.056  -3.030  0.00  0.00    +0.000 A 
ATOM   1202  H   U   B  38      33.351 -27.695  -3.331  0.00  0.00    +0.000 HD
ENDBRANCH 3371194
BRANCH   71203
ATOM   1203  N1  U   B   5     -17.005 -11.270  21.985  0.00  0.00    +0.000 N 
ATOM   1204  C2  U   B   5     -18.076 -11.471  22.841  0.00  0.00    +0.000 A 
ATOM   1205  O2  U   B   5     -18.850 -10.583  23.154  0.00  0.00    +0.000 OA
ATOM   1206  N3  U   B   5     -18.210 -12.753  23.315  0.00  0.00    +0.000 N 
ATOM   1207  C4  U   B   5     -17.400 -13.829  23.032  0.00  0.00    +0.000 A 
ATOM   1208  O4  U   B   5     -17.649 -14.921  23.539  0.00  0.00    +0.000 OA
ATOM   1209  C5  U   B   5     -16.317 -13.540  22.142  0.00  0.00    +0.000 A 
ATOM   1210  C6  U   B   5     -16.164 -12.302  21.662  0.00  0.00    +0.000 A 
ATOM   1211  H   U   B   5     -18.967 -12.920  23.922  0.00  0.00    +0.000 HD
ENDBRANCH   71203
BRANCH  471212
ATOM   1212  N9  A   B   9      -7.107 -15.485  36.308  0.00  0.00    +0.000 N 
ATOM   1213  C8  A   B   9      -7.714 -14.368  35.800  0.00  0.00    +0.000 A 
ATOM   1214  N7  A   B   9      -7.155 -13.918  34.698  0.00  0.00    +0.000 NA
ATOM   1215  C5  A   B   9      -6.111 -14.803  34.468  0.00  0.00    +0.000 A 
ATOM   1216  C6  A   B   9      -5.139 -14.878  33.458  0.00  0.00    +0.000 A 
ATOM   1217  N1  A   B   9      -4.243 -15.884  33.520  0.00  0.00    +0.000 NA
ATOM   1218  C2  A   B   9      -4.325 -16.753  34.535  0.00  0.00    +0.000 A 
ATOM   1219  N3  A   B   9      -5.194 -16.785  35.545  0.00  0.00    +0.000 NA
ATOM   1220  C4  A   B   9      -6.071 -15.773  35.451  0.00  0.00    +0.000 A 
BRANCH12161221
ATOM   1221  N6  A   B   9      -5.056 -14.008  32.447  0.00  0.00    +0.000 N 
ATOM   1222  H   A   B   9      -4.352 -14.110  31.766  0.00  0.00    +0.000 HD
ATOM   1223  H   A   B   9      -5.699 -13.265  32.383  0.00  0.00    +0.000 HD
ENDBRANCH12161221
ENDBRANCH  471212
BRANCH 3171224
ATOM   1224  N1  U   B  36      32.810 -31.415   5.498  0.00  0.00    +0.000 N 
ATOM   1225  C2  U   B  36      31.770 -31.124   4.627  0.00  0.00    +0.000 A 
ATOM   1226  O2  U   B  36      31.093 -31.982   4.090  0.00  0.00    +0.000 OA
ATOM   1227  N3  U   B  36      31.554 -29.785   4.403  0.00  0.00    +0.000 N 
ATOM   1228  C4  U   B  36      32.249 -28.728   4.947  0.00  0.00    +0.000 A 
ATOM   1229  O4  U   B  36      31.930 -27.579   4.643  0.00  0.00    +0.000 OA
ATOM   1230  C5  U   B  36      33.304 -29.105   5.836  0.00  0.00    +0.000 A 
ATOM   1231  C6  U   B  36      33.541 -30.404   6.076  0.00  0.00    +0.000 A 
ATOM   1232  H   U   B  36      30.822 -29.557   3.786  0.00  0.00    +0.000 HD
ENDBRANCH 3171224
BRANCH  371233
ATOM   1233  N1  U   B   8     -13.227 -14.015  34.624  0.00  0.00    +0.000 N 
ATOM   1234  C2  U   B   8     -13.293 -15.342  34.233  0.00  0.00    +0.000 A 
ATOM   1235  O2  U   B   8     -13.631 -16.236  34.986  0.00  0.00    +0.000 OA
ATOM   1236  N3  U   B   8     -12.950 -15.583  32.925  0.00  0.00    +0.000 N 
ATOM   1237  C4  U   B   8     -12.560 -14.653  31.989  0.00  0.00    +0.000 A 
ATOM   1238  O4  U   B   8     -12.284 -15.026  30.850  0.00  0.00    +0.000 OA
ATOM   1239  C5  U   B   8     -12.520 -13.306  32.467  0.00  0.00    +0.000 A 
ATOM   1240  C6  U   B   8     -12.846 -13.042  33.739  0.00  0.00    +0.000 A 
ATOM   1241  H   U   B   8     -12.987 -16.520  32.626  0.00  0.00    +0.000 HD
ENDBRANCH  371233
BRANCH  171242
ATOM   1242  N9  A   B   6     -17.069 -10.310  26.537  0.00  0.00    +0.000 N 
ATOM   1243  C8  A   B   6     -16.143 -10.907  25.720  0.00  0.00    +0.000 A 
ATOM   1244  N7  A   B   6     -16.176 -12.219  25.761  0.00  0.00    +0.000 NA
ATOM   1245  C5  A   B   6     -17.191 -12.502  26.661  0.00  0.00    +0.000 A 
ATOM   1246  C6  A   B   6     -17.726 -13.708  27.142  0.00  0.00    +0.000 A 
ATOM   1247  N1  A   B   6     -18.734 -13.640  28.034  0.00  0.00    +0.000 NA
ATOM   1248  C2  A   B   6     -19.169 -12.435  28.412  0.00  0.00    +0.000 A 
ATOM   1249  N3  A   B   6     -18.751 -11.232  28.030  0.00  0.00    +0.000 NA
ATOM   1250  C4  A   B   6     -17.747 -11.336  27.145  0.00  0.00    +0.000 A 
BRANCH12461251
ATOM   1251  N6  A   B   6     -17.287 -14.916  26.764  0.00  0.00    +0.000 N 
ATOM   1252  H   A   B   6     -16.552 -14.991  26.114  0.00  0.00    +0.000 HD
ATOM   1253  H   A   B   6     -17.700 -15.728  27.137  0.00  0.00    +0.000 HD
ENDBRANCH12461251
ENDBRANCH  171242
BRANCH 3071254
ATOM   1254  N9  A   B  35      32.481 -29.483   9.864  0.00  0.00    +0.000 N 
ATOM   1255  C8  A   B  35      32.515 -28.119   9.725  0.00  0.00    +0.000 A 
ATOM   1256  N7  A   B  35      31.638 -27.660   8.864  0.00  0.00    +0.000 NA
ATOM   1257  C5  A   B  35      30.986 -28.798   8.405  0.00  0.00    +0.000 A 
ATOM   1258  C6  A   B  35      29.952 -28.994   7.479  0.00  0.00    +0.000 A 
ATOM   1259  N1  A   B  35      29.536 -30.257   7.251  0.00  0.00    +0.000 NA
ATOM   1260  C2  A   B  35      30.125 -31.253   7.918  0.00  0.00    +0.000 A 
ATOM   1261  N3  A   B  35      31.104 -31.196   8.815  0.00  0.00    +0.000 NA
ATOM   1262  C4  A   B  35      31.493 -29.925   9.015  0.00  0.00    +0.000 A 
BRANCH12581263
ATOM   1263  N6  A   B  35      29.362 -27.999   6.806  0.00  0.00    +0.000 N 
ATOM   1264  H   A   B  35      28.640 -28.197   6.167  0.00  0.00    +0.000 HD
ATOM   1265  H   A   B  35      29.650 -27.069   6.950  0.00  0.00    +0.000 HD
ENDBRANCH12581263
ENDBRANCH 3071254
BRANCH 4681266
ATOM   1266  OP1 U   B  52      14.099 -18.385  21.839  0.00  0.00    +0.000 OA
ATOM   1267  H   U   B  52      14.408 -17.514  21.546  0.00  0.00    +0.000 HD
ENDBRANCH 4681266
BRANCH 4761268
ATOM   1268  O2' U   B  52      13.002 -17.437  14.595  0.00  0.00    +0.000 OA
ATOM   1269  H   U   B  52      13.721 -16.867  14.908  0.00  0.00    +0.000 HD
ENDBRANCH 4761268
BRANCH 4781270
ATOM   1270  OP2 A   B  53      10.089 -18.462  18.312  0.00  0.00    +0.000 OA
ATOM   1271  H   A   B  53      10.578 -19.225  17.966  0.00  0.00    +0.000 HD
ENDBRANCH 4781270
BRANCH 4861272
ATOM   1272  O2' A   B  53       8.358 -19.198  11.118  0.00  0.00    +0.000 OA
ATOM   1273  H   A   B  53       8.945 -18.431  11.028  0.00  0.00    +0.000 HD
ENDBRANCH 4861272
BRANCH 4881274
ATOM   1274  OP2 A   B  54       5.669 -18.765  15.065  0.00  0.00    +0.000 OA
ATOM   1275  H   A   B  54       6.297 -19.504  15.080  0.00  0.00    +0.000 HD
ENDBRANCH 4881274
BRANCH 4961276
ATOM   1276  O2' A   B  54       4.151 -23.111   9.243  0.00  0.00    +0.000 OA
ATOM   1277  H   A   B  54       4.601 -22.405   8.752  0.00  0.00    +0.000 HD
ENDBRANCH 4961276
BRANCH 4981278
ATOM   1278  OP2 A   B  55       1.398 -21.139  12.693  0.00  0.00    +0.000 OA
ATOM   1279  H   A   B  55       1.521 -20.184  12.812  0.00  0.00    +0.000 HD
ENDBRANCH 4981278
BRANCH 4461280
ATOM   1280  O2' U   B  49      25.262 -27.430  20.596  0.00  0.00    +0.000 OA
ATOM   1281  H   U   B  49      25.951 -28.071  20.831  0.00  0.00    +0.000 HD
ENDBRANCH 4461280
BRANCH 4281282
ATOM   1282  OP1 A   B  48      22.892 -37.070  13.741  0.00  0.00    +0.000 OA
ATOM   1283  H   A   B  48      22.405 -37.648  13.133  0.00  0.00    +0.000 HD
ENDBRANCH 4281282
BRANCH 4361284
ATOM   1284  O2' A   B  48      27.041 -32.439  17.489  0.00  0.00    +0.000 OA
ATOM   1285  H   A   B  48      27.518 -33.275  17.367  0.00  0.00    +0.000 HD
ENDBRANCH 4361284
BRANCH 4381286
ATOM   1286  OP1 U   B  49      22.916 -34.257  19.334  0.00  0.00    +0.000 OA
ATOM   1287  H   U   B  49      22.715 -35.152  19.018  0.00  0.00    +0.000 HD
ENDBRANCH 4381286
BRANCH 4661288
ATOM   1288  O2' U   B  51      17.860 -18.741  18.545  0.00  0.00    +0.000 OA
ATOM   1289  H   U   B  51      18.550 -18.672  19.224  0.00  0.00    +0.000 HD
ENDBRANCH 4661288
BRANCH 4481290
ATOM   1290  OP1 U   B  50      21.616 -29.176  23.259  0.00  0.00    +0.000 OA
ATOM   1291  H   U   B  50      21.664 -30.130  23.426  0.00  0.00    +0.000 HD
ENDBRANCH 4481290
BRANCH 4561292
ATOM   1292  O2' U   B  50      21.906 -22.241  20.965  0.00  0.00    +0.000 OA
ATOM   1293  H   U   B  50      22.746 -22.450  21.402  0.00  0.00    +0.000 HD
ENDBRANCH 4561292
BRANCH 4581294
ATOM   1294  OP1 U   B  51      18.818 -23.584  24.452  0.00  0.00    +0.000 OA
ATOM   1295  H   U   B  51      17.876 -23.400  24.593  0.00  0.00    +0.000 HD
ENDBRANCH 4581294
BRANCH 5981296
ATOM   1296  OP1 C   B  65     -31.214 -11.082  25.091  0.00  0.00    +0.000 OA
ATOM   1297  H   C   B  65     -31.854 -11.499  24.493  0.00  0.00    +0.000 HD
ENDBRANCH 5981296
BRANCH 5381298
ATOM   1298  OP1 A   B  59     -11.905 -30.980  23.368  0.00  0.00    +0.000 OA
ATOM   1299  H   A   B  59     -11.847 -31.160  22.417  0.00  0.00    +0.000 HD
ENDBRANCH 5381298
BRANCH 5461300
ATOM   1300  O2' A   B  59     -11.547 -29.193  30.135  0.00  0.00    +0.000 OA
ATOM   1301  H   A   B  59     -11.029 -29.976  29.889  0.00  0.00    +0.000 HD
ENDBRANCH 5461300
BRANCH 6151302
ATOM   1302  O2' A   B  66     -23.533  -2.175  21.113  0.00  0.00    +0.000 OA
ATOM   1303  H   A   B  66     -24.225  -2.029  21.777  0.00  0.00    +0.000 HD
ENDBRANCH 6151302
BRANCH 6081304
ATOM   1304  OP2 A   B  66     -26.488  -8.068  23.950  0.00  0.00    +0.000 OA
ATOM   1305  H   A   B  66     -27.224  -7.475  23.731  0.00  0.00    +0.000 HD
ENDBRANCH 6081304
BRANCH 5481306
ATOM   1306  OP1 G   B  60     -14.760 -29.351  26.455  0.00  0.00    +0.000 OA
ATOM   1307  H   G   B  60     -14.398 -29.671  25.614  0.00  0.00    +0.000 HD
ENDBRANCH 5481306
BRANCH 6061308
ATOM   1308  O2' C   B  65     -27.744  -7.785  19.326  0.00  0.00    +0.000 OA
ATOM   1309  H   C   B  65     -27.806  -8.688  18.978  0.00  0.00    +0.000 HD
ENDBRANCH 6061308
BRANCH 5561310
ATOM   1310  O2' G   B  60     -16.025 -26.655  33.147  0.00  0.00    +0.000 OA
ATOM   1311  H   G   B  60     -15.635 -27.539  33.235  0.00  0.00    +0.000 HD
ENDBRANCH 5561310
BRANCH 3781312
ATOM   1312  OP1 A   B  43      28.768 -18.341  -1.397  0.00  0.00    +0.000 OA
ATOM   1313  H   A   B  43      28.063 -17.946  -1.933  0.00  0.00    +0.000 HD
ENDBRANCH 3781312
BRANCH 5581314
ATOM   1314  OP1 A   B  61     -19.645 -27.753  30.043  0.00  0.00    +0.000 OA
ATOM   1315  H   A   B  61     -19.426 -28.403  29.357  0.00  0.00    +0.000 HD
ENDBRANCH 5581314
BRANCH 5661316
ATOM   1316  O2' A   B  61     -20.712 -22.777  35.050  0.00  0.00    +0.000 OA
ATOM   1317  H   A   B  61     -20.471 -23.605  35.494  0.00  0.00    +0.000 HD
ENDBRANCH 5661316
BRANCH 5961318
ATOM   1318  O2' A   B  64     -26.472  -9.259  25.673  0.00  0.00    +0.000 OA
ATOM   1319  H   A   B  64     -26.724  -8.964  26.562  0.00  0.00    +0.000 HD
ENDBRANCH 5961318
BRANCH 5881320
ATOM   1320  OP1 A   B  64     -30.157 -14.651  29.031  0.00  0.00    +0.000 OA
ATOM   1321  H   A   B  64     -30.648 -14.778  28.204  0.00  0.00    +0.000 HD
ENDBRANCH 5881320
BRANCH 5861322
ATOM   1322  O2' U   B  63     -26.050 -12.671  30.833  0.00  0.00    +0.000 OA
ATOM   1323  H   U   B  63     -26.211 -12.896  31.763  0.00  0.00    +0.000 HD
ENDBRANCH 5861322
BRANCH 5781324
ATOM   1324  OP1 U   B  63     -27.591 -19.838  31.388  0.00  0.00    +0.000 OA
ATOM   1325  H   U   B  63     -28.135 -19.766  30.588  0.00  0.00    +0.000 HD
ENDBRANCH 5781324
BRANCH 5681326
ATOM   1326  OP1 C   B  62     -24.026 -24.639  31.958  0.00  0.00    +0.000 OA
ATOM   1327  H   C   B  62     -24.631 -24.420  31.232  0.00  0.00    +0.000 HD
ENDBRANCH 5681326
BRANCH 5761328
ATOM   1328  O2' C   B  62     -23.764 -17.506  33.537  0.00  0.00    +0.000 OA
ATOM   1329  H   C   B  62     -23.755 -18.016  34.362  0.00  0.00    +0.000 HD
ENDBRANCH 5761328
BRANCH 5061330
ATOM   1330  O2' A   B  55       0.433 -28.010  10.106  0.00  0.00    +0.000 OA
ATOM   1331  H   A   B  55       0.760 -27.632   9.275  0.00  0.00    +0.000 HD
ENDBRANCH 5061330
BRANCH 5081332
ATOM   1332  OP2 A   B  56      -2.350 -24.692  12.288  0.00  0.00    +0.000 OA
ATOM   1333  H   A   B  56      -2.315 -23.817  11.871  0.00  0.00    +0.000 HD
ENDBRANCH 5081332
BRANCH 5161334
ATOM   1334  O2' A   B  56      -2.823 -31.907  13.848  0.00  0.00    +0.000 OA
ATOM   1335  H   A   B  56      -2.613 -32.023  12.908  0.00  0.00    +0.000 HD
ENDBRANCH 5161334
BRANCH 5181336
ATOM   1336  OP2 A   B  57      -5.604 -27.949  14.296  0.00  0.00    +0.000 OA
ATOM   1337  H   A   B  57      -5.664 -27.427  13.481  0.00  0.00    +0.000 HD
ENDBRANCH 5181336
BRANCH 5261338
ATOM   1338  O2' A   B  57      -5.300 -33.276  19.416  0.00  0.00    +0.000 OA
ATOM   1339  H   A   B  57      -5.197 -33.858  18.647  0.00  0.00    +0.000 HD
ENDBRANCH 5261338
BRANCH 5281340
ATOM   1340  OP1 C   B  58      -9.873 -31.673  18.483  0.00  0.00    +0.000 OA
ATOM   1341  H   C   B  58     -10.068 -31.657  17.533  0.00  0.00    +0.000 HD
ENDBRANCH 5281340
BRANCH 5361342
ATOM   1342  O2' C   B  58      -7.181 -31.739  25.267  0.00  0.00    +0.000 OA
ATOM   1343  H   C   B  58      -7.096 -32.624  24.878  0.00  0.00    +0.000 HD
ENDBRANCH 5361342
BRANCH 1181344
ATOM   1344  OP1 C   B  17      -3.305   3.591  38.691  0.00  0.00    +0.000 OA
ATOM   1345  H   C   B  17      -3.767   2.958  38.119  0.00  0.00    +0.000 HD
ENDBRANCH 1181344
BRANCH  581346
ATOM   1346  OP1 U   B  11       1.266 -14.556  42.413  0.00  0.00    +0.000 OA
ATOM   1347  H   U   B  11       1.710 -15.412  42.308  0.00  0.00    +0.000 HD
ENDBRANCH  581346
BRANCH  661348
ATOM   1348  O2' U   B  11       5.478 -14.625  36.553  0.00  0.00    +0.000 OA
ATOM   1349  H   U   B  11       5.255 -15.540  36.786  0.00  0.00    +0.000 HD
ENDBRANCH  661348
BRANCH  681350
ATOM   1350  OP1 U   B  12       7.019 -13.076  40.891  0.00  0.00    +0.000 OA
ATOM   1351  H   U   B  12       7.675 -13.619  40.426  0.00  0.00    +0.000 HD
ENDBRANCH  681350
BRANCH  761352
ATOM   1352  O2' U   B  12       9.248  -9.903  34.758  0.00  0.00    +0.000 OA
ATOM   1353  H   U   B  12       9.433 -10.855  34.723  0.00  0.00    +0.000 HD
ENDBRANCH  761352
BRANCH  781354
ATOM   1354  OP2 C   B  13       8.690  -8.610  39.402  0.00  0.00    +0.000 OA
ATOM   1355  H   C   B  13       7.873  -8.560  38.881  0.00  0.00    +0.000 HD
ENDBRANCH  781354
BRANCH  861356
ATOM   1356  O2' C   B  13      10.143  -3.760  33.948  0.00  0.00    +0.000 OA
ATOM   1357  H   C   B  13      10.655  -4.506  33.599  0.00  0.00    +0.000 HD
ENDBRANCH  861356
BRANCH  881358
ATOM   1358  OP2 A   B  14      10.577  -3.911  38.862  0.00  0.00    +0.000 OA
ATOM   1359  H   A   B  14       9.698  -4.201  38.574  0.00  0.00    +0.000 HD
ENDBRANCH  881358
BRANCH  961360
ATOM   1360  O2' A   B  14       7.747   1.998  35.359  0.00  0.00    +0.000 OA
ATOM   1361  H   A   B  14       8.352   1.713  34.656  0.00  0.00    +0.000 HD
ENDBRANCH  961360
BRANCH  981362
ATOM   1362  OP2 U   B  15      10.574   1.009  39.492  0.00  0.00    +0.000 OA
ATOM   1363  H   U   B  15      11.492   0.868  39.211  0.00  0.00    +0.000 HD
ENDBRANCH  981362
BRANCH 1061364
ATOM   1364  O2' U   B  15       4.912   6.142  39.586  0.00  0.00    +0.000 OA
ATOM   1365  H   U   B  15       5.409   6.391  40.381  0.00  0.00    +0.000 HD
ENDBRANCH 1061364
BRANCH 1081366
ATOM   1366  OP1 C   B  16       4.421   1.791  41.962  0.00  0.00    +0.000 OA
ATOM   1367  H   C   B  16       5.265   1.334  41.824  0.00  0.00    +0.000 HD
ENDBRANCH 1081366
BRANCH 1161368
ATOM   1368  O2' C   B  16      -0.563   7.350  39.832  0.00  0.00    +0.000 OA
ATOM   1369  H   C   B  16      -0.292   7.054  40.715  0.00  0.00    +0.000 HD
ENDBRANCH 1161368
BRANCH  561370
ATOM   1370  O2' U   B  10      -0.075 -17.004  38.508  0.00  0.00    +0.000 OA
ATOM   1371  H   U   B  10      -0.673 -17.654  38.909  0.00  0.00    +0.000 HD
ENDBRANCH  561370
BRANCH 1261372
ATOM   1372  O2' C   B  17      -2.110   6.733  32.306  0.00  0.00    +0.000 OA
ATOM   1373  H   C   B  17      -2.418   7.407  32.932  0.00  0.00    +0.000 HD
ENDBRANCH 1261372
BRANCH 1281374
ATOM   1374  OP2 G   B  18      -4.615   2.946  34.917  0.00  0.00    +0.000 OA
ATOM   1375  H   G   B  18      -4.992   2.053  34.878  0.00  0.00    +0.000 HD
ENDBRANCH 1281374
BRANCH 1361376
ATOM   1376  O2' G   B  18       1.146   1.757  29.986  0.00  0.00    +0.000 OA
ATOM   1377  H   G   B  18       0.798   2.659  30.061  0.00  0.00    +0.000 HD
ENDBRANCH 1361376
BRANCH 1381378
ATOM   1378  OP2 A   B  19      -2.582  -1.273  29.389  0.00  0.00    +0.000 OA
ATOM   1379  H   A   B  19      -2.813  -2.112  28.960  0.00  0.00    +0.000 HD
ENDBRANCH 1381378
BRANCH 1461380
ATOM   1380  O2' A   B  19       4.278  -3.150  27.280  0.00  0.00    +0.000 OA
ATOM   1381  H   A   B  19       4.364  -2.201  27.098  0.00  0.00    +0.000 HD
ENDBRANCH 1461380
BRANCH 1481382
ATOM   1382  OP2 A   B  20      -0.259  -4.468  26.073  0.00  0.00    +0.000 OA
ATOM   1383  H   A   B  20      -0.768  -5.227  25.748  0.00  0.00    +0.000 HD
ENDBRANCH 1481382
BRANCH 1561384
ATOM   1384  O2' A   B  20       5.478  -9.139  27.164  0.00  0.00    +0.000 OA
ATOM   1385  H   A   B  20       5.956  -8.376  26.802  0.00  0.00    +0.000 HD
ENDBRANCH 1561384
BRANCH 1581386
ATOM   1386  OP2 A   B  21       1.340  -9.761  24.780  0.00  0.00    +0.000 OA
ATOM   1387  H   A   B  21       1.124  -9.066  24.139  0.00  0.00    +0.000 HD
ENDBRANCH 1581386
BRANCH 1661388
ATOM   1388  O2' A   B  21       4.773 -14.822  29.077  0.00  0.00    +0.000 OA
ATOM   1389  H   A   B  21       5.554 -14.321  28.793  0.00  0.00    +0.000 HD
ENDBRANCH 1661388
BRANCH 1681390
ATOM   1390  OP2 C   B  22       1.811 -15.396  25.345  0.00  0.00    +0.000 OA
ATOM   1391  H   C   B  22       2.043 -14.880  24.557  0.00  0.00    +0.000 HD
ENDBRANCH 1681390
BRANCH 1761392
ATOM   1392  O2' C   B  22       1.605 -19.460  31.596  0.00  0.00    +0.000 OA
ATOM   1393  H   C   B  22       2.541 -19.233  31.710  0.00  0.00    +0.000 HD
ENDBRANCH 1761392
BRANCH 4181394
ATOM   1394  OP1 U   B  47      21.932 -37.183   7.607  0.00  0.00    +0.000 OA
ATOM   1395  H   U   B  47      21.269 -37.311   6.911  0.00  0.00    +0.000 HD
ENDBRANCH 4181394
BRANCH   81396
ATOM   1396  OP1 A   B   6     -12.035  -7.025  23.806  0.00  0.00    +0.000 OA
ATOM   1397  H   A   B   6     -11.375  -7.047  23.096  0.00  0.00    +0.000 HD
ENDBRANCH   81396
BRANCH  161398
ATOM   1398  O2' A   B   6     -17.461  -7.346  28.593  0.00  0.00    +0.000 OA
ATOM   1399  H   A   B   6     -17.641  -6.660  27.931  0.00  0.00    +0.000 HD
ENDBRANCH  161398
BRANCH  181400
ATOM   1400  OP1 C   B   7     -13.061  -6.008  29.938  0.00  0.00    +0.000 OA
ATOM   1401  H   C   B   7     -12.629  -5.442  29.279  0.00  0.00    +0.000 HD
ENDBRANCH  181400
BRANCH  261402
ATOM   1402  O2' C   B   7     -16.555 -10.540  34.353  0.00  0.00    +0.000 OA
ATOM   1403  H   C   B   7     -17.138  -9.786  34.173  0.00  0.00    +0.000 HD
ENDBRANCH  261402
BRANCH  281404
ATOM   1404  OP1 U   B   8     -12.614  -7.529  35.185  0.00  0.00    +0.000 OA
ATOM   1405  H   U   B   8     -12.739  -6.750  34.620  0.00  0.00    +0.000 HD
ENDBRANCH  281404
BRANCH  361406
ATOM   1406  O2' U   B   8     -12.826 -14.293  38.218  0.00  0.00    +0.000 OA
ATOM   1407  H   U   B   8     -13.584 -13.788  38.552  0.00  0.00    +0.000 HD
ENDBRANCH  361406
BRANCH  381408
ATOM   1408  OP1 A   B   9      -9.595 -10.859  39.663  0.00  0.00    +0.000 OA
ATOM   1409  H   A   B   9     -10.038  -9.996  39.665  0.00  0.00    +0.000 HD
ENDBRANCH  381408
BRANCH  461410
ATOM   1410  O2' A   B   9      -6.424 -17.190  39.458  0.00  0.00    +0.000 OA
ATOM   1411  H   A   B   9      -7.321 -17.368  39.781  0.00  0.00    +0.000 HD
ENDBRANCH  461410
BRANCH  481412
ATOM   1412  OP1 U   B  10      -5.176 -13.623  42.483  0.00  0.00    +0.000 OA
ATOM   1413  H   U   B  10      -4.474 -12.991  42.703  0.00  0.00    +0.000 HD
ENDBRANCH  481412
BRANCH 3281414
ATOM   1414  OP2 U   B  38      37.597 -33.750  -1.442  0.00  0.00    +0.000 OA
ATOM   1415  H   U   B  38      38.335 -33.350  -1.928  0.00  0.00    +0.000 HD
ENDBRANCH 3281414
BRANCH 2781416
ATOM   1416  OP1 U   B  33      29.220 -17.069  11.152  0.00  0.00    +0.000 OA
ATOM   1417  H   U   B  33      28.891 -16.402  10.529  0.00  0.00    +0.000 HD
ENDBRANCH 2781416
BRANCH 2861418
ATOM   1418  O2' U   B  33      30.582 -22.375  15.951  0.00  0.00    +0.000 OA
ATOM   1419  H   U   B  33      30.309 -21.566  16.412  0.00  0.00    +0.000 HD
ENDBRANCH 2861418
BRANCH 2881420
ATOM   1420  OP1 A   B  34      34.138 -20.564  13.121  0.00  0.00    +0.000 OA
ATOM   1421  H   A   B  34      34.786 -20.805  12.441  0.00  0.00    +0.000 HD
ENDBRANCH 2881420
BRANCH 2961422
ATOM   1422  O2' A   B  34      33.829 -27.699  14.385  0.00  0.00    +0.000 OA
ATOM   1423  H   A   B  34      33.886 -27.188  15.208  0.00  0.00    +0.000 HD
ENDBRANCH 2961422
BRANCH 4081424
ATOM   1424  OP2 U   B  46      22.058 -32.020   2.442  0.00  0.00    +0.000 OA
ATOM   1425  H   U   B  46      21.446 -31.567   1.841  0.00  0.00    +0.000 HD
ENDBRANCH 4081424
BRANCH 2981426
ATOM   1426  OP1 A   B  35      37.577 -25.898  11.917  0.00  0.00    +0.000 OA
ATOM   1427  H   A   B  35      38.047 -25.990  11.073  0.00  0.00    +0.000 HD
ENDBRANCH 2981426
BRANCH 4061428
ATOM   1428  O2' U   B  45      25.175 -34.923  -0.144  0.00  0.00    +0.000 OA
ATOM   1429  H   U   B  45      24.880 -34.805  -1.061  0.00  0.00    +0.000 HD
ENDBRANCH 4061428
BRANCH 3061430
ATOM   1430  O2' A   B  35      34.556 -32.387  10.490  0.00  0.00    +0.000 OA
ATOM   1431  H   A   B  35      34.805 -32.269  11.420  0.00  0.00    +0.000 HD
ENDBRANCH 3061430
BRANCH 3081432
ATOM   1432  OP1 U   B  36      38.709 -31.541   8.288  0.00  0.00    +0.000 OA
ATOM   1433  H   U   B  36      39.118 -31.512   7.409  0.00  0.00    +0.000 HD
ENDBRANCH 3081432
BRANCH 3161434
ATOM   1434  O2' U   B  36      33.516 -34.855   4.530  0.00  0.00    +0.000 OA
ATOM   1435  H   U   B  36      33.620 -35.291   5.390  0.00  0.00    +0.000 HD
ENDBRANCH 3161434
BRANCH 3181436
ATOM   1436  OP2 A   B  37      37.345 -32.378   3.317  0.00  0.00    +0.000 OA
ATOM   1437  H   A   B  37      37.838 -32.109   2.526  0.00  0.00    +0.000 HD
ENDBRANCH 3181436
BRANCH 3981438
ATOM   1438  OP2 U   B  45      23.608 -27.726   0.655  0.00  0.00    +0.000 OA
ATOM   1439  H   U   B  45      24.549 -27.670   0.425  0.00  0.00    +0.000 HD
ENDBRANCH 3981438
BRANCH 3261440
ATOM   1440  O2' A   B  37      32.986 -35.319  -1.887  0.00  0.00    +0.000 OA
ATOM   1441  H   A   B  37      32.887 -36.062  -1.272  0.00  0.00    +0.000 HD
ENDBRANCH 3261440
BRANCH 1861442
ATOM   1442  O2' U   B  23      -0.014 -27.035  29.955  0.00  0.00    +0.000 OA
ATOM   1443  H   U   B  23      -0.268 -26.475  30.705  0.00  0.00    +0.000 HD
ENDBRANCH 1861442
BRANCH 3361444
ATOM   1444  O2' U   B  38      33.606 -32.032  -7.467  0.00  0.00    +0.000 OA
ATOM   1445  H   U   B  38      33.199 -32.902  -7.331  0.00  0.00    +0.000 HD
ENDBRANCH 3361444
BRANCH 3381446
ATOM   1446  OP2 U   B  39      38.286 -33.811  -6.276  0.00  0.00    +0.000 OA
ATOM   1447  H   U   B  39      39.247 -33.851  -6.403  0.00  0.00    +0.000 HD
ENDBRANCH 3381446
BRANCH 3461448
ATOM   1448  O2' U   B  39      42.398 -29.057  -6.903  0.00  0.00    +0.000 OA
ATOM   1449  H   U   B  39      41.983 -29.151  -6.031  0.00  0.00    +0.000 HD
ENDBRANCH 3461448
BRANCH 3481450
ATOM   1450  OP1 C   B  40      38.543 -27.676  -9.830  0.00  0.00    +0.000 OA
ATOM   1451  H   C   B  40      38.510 -27.181 -10.664  0.00  0.00    +0.000 HD
ENDBRANCH 3481450
BRANCH 3961452
ATOM   1452  O2' C   B  44      24.767 -29.364  -3.612  0.00  0.00    +0.000 OA
ATOM   1453  H   C   B  44      24.321 -28.867  -4.315  0.00  0.00    +0.000 HD
ENDBRANCH 3961452
BRANCH 3561454
ATOM   1454  O2' C   B  40      41.520 -21.192  -8.093  0.00  0.00    +0.000 OA
ATOM   1455  H   C   B  40      42.353 -21.685  -8.159  0.00  0.00    +0.000 HD
ENDBRANCH 3561454
BRANCH 3581456
ATOM   1456  OP1 U   B  41      39.950 -22.946  -3.894  0.00  0.00    +0.000 OA
ATOM   1457  H   U   B  41      40.372 -22.073  -3.894  0.00  0.00    +0.000 HD
ENDBRANCH 3581456
BRANCH 3881458
ATOM   1458  OP2 C   B  44      25.905 -22.669  -0.644  0.00  0.00    +0.000 OA
ATOM   1459  H   C   B  44      26.730 -22.960  -1.062  0.00  0.00    +0.000 HD
ENDBRANCH 3881458
BRANCH 3661460
ATOM   1460  O2' U   B  41      35.599 -17.923  -6.807  0.00  0.00    +0.000 OA
ATOM   1461  H   U   B  41      36.517 -17.610  -6.831  0.00  0.00    +0.000 HD
ENDBRANCH 3661460
BRANCH 3861462
ATOM   1462  O2' A   B  43      25.209 -23.249  -5.527  0.00  0.00    +0.000 OA
ATOM   1463  H   A   B  43      25.134 -22.347  -5.876  0.00  0.00    +0.000 HD
ENDBRANCH 3861462
BRANCH 3681464
ATOM   1464  OP1 U   B  42      35.249 -18.964  -2.111  0.00  0.00    +0.000 OA
ATOM   1465  H   U   B  42      35.071 -18.041  -2.351  0.00  0.00    +0.000 HD
ENDBRANCH 3681464
BRANCH 3761466
ATOM   1466  O2' U   B  42      29.243 -18.283  -6.162  0.00  0.00    +0.000 OA
ATOM   1467  H   U   B  42      29.823 -17.514  -6.276  0.00  0.00    +0.000 HD
ENDBRANCH 3761466
BRANCH 2461468
ATOM   1468  O2' A   B  29      12.161 -24.394   6.255  0.00  0.00    +0.000 OA
ATOM   1469  H   A   B  29      11.405 -24.762   5.771  0.00  0.00    +0.000 HD
ENDBRANCH 2461468
BRANCH 2061470
ATOM   1470  O2' U   B  25       3.552 -35.189  22.437  0.00  0.00    +0.000 OA
ATOM   1471  H   U   B  25       3.260 -35.493  23.311  0.00  0.00    +0.000 HD
ENDBRANCH 2061470
BRANCH 2081472
ATOM   1472  OP1 U   B  26       8.355 -35.806  22.910  0.00  0.00    +0.000 OA
ATOM   1473  H   U   B  26       9.173 -35.722  22.395  0.00  0.00    +0.000 HD
ENDBRANCH 2081472
BRANCH 2161474
ATOM   1474  O2' U   B  26       4.740 -35.773  16.541  0.00  0.00    +0.000 OA
ATOM   1475  H   U   B  26       4.337 -36.403  17.159  0.00  0.00    +0.000 HD
ENDBRANCH 2161474
BRANCH 2181476
ATOM   1476  OP2 U   B  27       9.360 -35.048  17.780  0.00  0.00    +0.000 OA
ATOM   1477  H   U   B  27      10.221 -34.841  17.384  0.00  0.00    +0.000 HD
ENDBRANCH 2181476
BRANCH 1981478
ATOM   1478  OP1 U   B  25       7.119 -31.662  27.776  0.00  0.00    +0.000 OA
ATOM   1479  H   U   B  25       7.925 -31.727  27.240  0.00  0.00    +0.000 HD
ENDBRANCH 1981478
BRANCH 1961480
ATOM   1480  O2' U   B  24       2.278 -31.942  27.251  0.00  0.00    +0.000 OA
ATOM   1481  H   U   B  24       2.009 -31.849  28.178  0.00  0.00    +0.000 HD
ENDBRANCH 1961480
BRANCH 2261482
ATOM   1482  O2' U   B  27       6.409 -33.564  11.098  0.00  0.00    +0.000 OA
ATOM   1483  H   U   B  27       5.849 -34.324  11.321  0.00  0.00    +0.000 HD
ENDBRANCH 2261482
BRANCH 2281484
ATOM   1484  OP2 U   B  28      10.940 -34.424  12.528  0.00  0.00    +0.000 OA
ATOM   1485  H   U   B  28      11.855 -34.215  12.283  0.00  0.00    +0.000 HD
ENDBRANCH 2281484
BRANCH 1781486
ATOM   1486  OP1 U   B  23       3.464 -21.950  27.706  0.00  0.00    +0.000 OA
ATOM   1487  H   U   B  23       3.403 -22.522  26.925  0.00  0.00    +0.000 HD
ENDBRANCH 1781486
BRANCH 2361488
ATOM   1488  O2' U   B  28       8.882 -29.349   7.465  0.00  0.00    +0.000 OA
ATOM   1489  H   U   B  28       8.193 -30.008   7.285  0.00  0.00    +0.000 HD
ENDBRANCH 2361488
BRANCH 2381490
ATOM   1490  OP2 A   B  29      13.090 -31.502   8.270  0.00  0.00    +0.000 OA
ATOM   1491  H   A   B  29      14.040 -31.344   8.155  0.00  0.00    +0.000 HD
ENDBRANCH 2381490
BRANCH 1881492
ATOM   1492  OP1 U   B  24       4.839 -25.658  30.257  0.00  0.00    +0.000 OA
ATOM   1493  H   U   B  24       5.726 -25.734  29.872  0.00  0.00    +0.000 HD
ENDBRANCH 1881492
BRANCH 4261494
ATOM   1494  O2' U   B  47      27.330 -35.849  12.239  0.00  0.00    +0.000 OA
ATOM   1495  H   U   B  47      27.544 -36.639  11.719  0.00  0.00    +0.000 HD
ENDBRANCH 4261494
BRANCH 4161496
ATOM   1496  O2' U   B  46      26.476 -36.803   5.969  0.00  0.00    +0.000 OA
ATOM   1497  H   U   B  46      26.392 -37.325   5.156  0.00  0.00    +0.000 HD
ENDBRANCH 4161496
BRANCH 2481498
ATOM   1498  OP2 A   B  30      15.952 -27.263   5.843  0.00  0.00    +0.000 OA
ATOM   1499  H   A   B  30      15.772 -28.135   5.457  0.00  0.00    +0.000 HD
ENDBRANCH 2481498
BRANCH 2561500
ATOM   1500  O2' A   B  30      16.120 -20.048   7.612  0.00  0.00    +0.000 OA
ATOM   1501  H   A   B  30      15.350 -20.008   7.023  0.00  0.00    +0.000 HD
ENDBRANCH 2561500
BRANCH 2581502
ATOM   1502  OP2 A   B  31      19.487 -22.837   5.732  0.00  0.00    +0.000 OA
ATOM   1503  H   A   B  31      19.215 -23.361   4.962  0.00  0.00    +0.000 HD
ENDBRANCH 2581502
BRANCH 2661504
ATOM   1504  O2' A   B  31      20.691 -17.598  10.834  0.00  0.00    +0.000 OA
ATOM   1505  H   A   B  31      19.973 -17.134  10.375  0.00  0.00    +0.000 HD
ENDBRANCH 2661504
BRANCH 2681506
ATOM   1506  OP2 A   B  32      23.503 -19.707   7.526  0.00  0.00    +0.000 OA
ATOM   1507  H   A   B  32      23.143 -19.680   6.626  0.00  0.00    +0.000 HD
ENDBRANCH 2681506
BRANCH 2761508
ATOM   1508  O2' A   B  32      25.808 -18.328  14.409  0.00  0.00    +0.000 OA
ATOM   1509  H   A   B  32      25.252 -17.536  14.341  0.00  0.00    +0.000 HD
ENDBRANCH 2761508
BRANCH 6141510
ATOM   1510  O3' A   B  66     -25.271  -3.894  19.799  0.00  0.00    +0.000 OA
BRANCH15101511
ATOM   1511  P   A   B  67     -25.273  -4.515  18.345  0.00  0.00    +0.000 P 
ATOM   1512  OP1 A   B  67     -26.326  -3.823  17.569  0.00  0.00    +0.000 OA
BRANCH15111513
ATOM   1513  OP2 A   B  67     -25.287  -5.993  18.460  0.00  0.00    +0.000 OA
ATOM   1514  H   A   B  67     -25.288  -6.386  17.573  0.00  0.00    +0.000 HD
ENDBRANCH15111513
BRANCH15111515
ATOM   1515  O5' A   B  67     -23.859  -4.081  17.756  0.00  0.00    +0.000 OA
BRANCH15151516
ATOM   1516  C5' A   B  67     -23.589  -2.720  17.442  0.00  0.00    +0.000 C 
BRANCH15161517
ATOM   1517  C4' A   B  67     -22.152  -2.547  17.017  0.00  0.00    +0.000 C 
ATOM   1518  O4' A   B  67     -21.270  -2.849  18.129  0.00  0.00    +0.000 OA
ATOM   1519  C3' A   B  67     -21.680  -3.471  15.916  0.00  0.00    +0.000 C 
ATOM   1520  C2' A   B  67     -20.175  -3.484  16.132  0.00  0.00    +0.000 C 
ATOM   1521  C1' A   B  67     -20.104  -3.490  17.655  0.00  0.00    +0.000 C 
BRANCH15211522
ATOM   1522  N9  A   B  67     -20.071  -4.855  18.189  0.00  0.00    +0.000 N 
ATOM   1523  C8  A   B  67     -21.093  -5.555  18.778  0.00  0.00    +0.000 A 
ATOM   1524  N7  A   B  67     -20.758  -6.764  19.149  0.00  0.00    +0.000 NA
ATOM   1525  C5  A   B  67     -19.424  -6.869  18.785  0.00  0.00    +0.000 A 
ATOM   1526  C6  A   B  67     -18.486  -7.905  18.906  0.00  0.00    +0.000 A 
ATOM   1527  N6  A   B  67     -18.772  -9.093  19.455  0.00  0.00    +0.000 N 
ATOM   1528  N1  A   B  67     -17.244  -7.684  18.438  0.00  0.00    +0.000 NA
ATOM   1529  C2  A   B  67     -16.964  -6.496  17.888  0.00  0.00    +0.000 A 
ATOM   1530  N3  A   B  67     -17.757  -5.445  17.717  0.00  0.00    +0.000 NA
ATOM   1531  C4  A   B  67     -18.989  -5.699  18.193  0.00  0.00    +0.000 A 
ATOM   1532  H   A   B  67     -18.077  -9.787  19.516  0.00  0.00    +0.000 HD
ATOM   1533  H   A   B  67     -19.678  -9.272  19.797  0.00  0.00    +0.000 HD
ENDBRANCH15211522
BRANCH15201534
ATOM   1534  O2' A   B  67     -19.559  -2.310  15.639  0.00  0.00    +0.000 OA
ATOM   1535  H   A   B  67     -19.966  -1.533  16.053  0.00  0.00    +0.000 HD
ENDBRANCH15201534
BRANCH15191536
ATOM   1536  O3' A   B  67     -22.067  -3.032  14.620  0.00  0.00    +0.000 OA
BRANCH15361537
ATOM   1537  P   A   B  68     -22.509  -4.082  13.531  0.00  0.00    +0.000 P 
ATOM   1538  OP1 A   B  68     -22.900  -3.325  12.317  0.00  0.00    +0.000 OA
BRANCH15371539
ATOM   1539  OP2 A   B  68     -23.477  -5.025  14.152  0.00  0.00    +0.000 OA
ATOM   1540  H   A   B  68     -23.759  -5.679  13.493  0.00  0.00    +0.000 HD
ENDBRANCH15371539
BRANCH15371541
ATOM   1541  O5' A   B  68     -21.179  -4.894  13.204  0.00  0.00    +0.000 OA
BRANCH15411542
ATOM   1542  C5' A   B  68     -20.084  -4.259  12.561  0.00  0.00    +0.000 C 
BRANCH15421543
ATOM   1543  C4' A   B  68     -18.858  -5.137  12.582  0.00  0.00    +0.000 C 
ATOM   1544  O4' A   B  68     -18.478  -5.424  13.955  0.00  0.00    +0.000 OA
ATOM   1545  C3' A   B  68     -19.010  -6.510  11.960  0.00  0.00    +0.000 C 
ATOM   1546  C2' A   B  68     -17.865  -7.270  12.608  0.00  0.00    +0.000 C 
ATOM   1547  C1' A   B  68     -17.931  -6.726  14.032  0.00  0.00    +0.000 C 
BRANCH15471548
ATOM   1548  N9  A   B  68     -18.798  -7.561  14.874  0.00  0.00    +0.000 N 
ATOM   1549  C8  A   B  68     -20.065  -7.292  15.316  0.00  0.00    +0.000 A 
ATOM   1550  N7  A   B  68     -20.582  -8.255  16.041  0.00  0.00    +0.000 NA
ATOM   1551  C5  A   B  68     -19.589  -9.222  16.077  0.00  0.00    +0.000 A 
ATOM   1552  C6  A   B  68     -19.513 -10.487  16.681  0.00  0.00    +0.000 A 
ATOM   1553  N6  A   B  68     -20.509 -11.020  17.397  0.00  0.00    +0.000 N 
ATOM   1554  N1  A   B  68     -18.378 -11.193  16.518  0.00  0.00    +0.000 NA
ATOM   1555  C2  A   B  68     -17.387 -10.659  15.800  0.00  0.00    +0.000 A 
ATOM   1556  N3  A   B  68     -17.336  -9.482  15.182  0.00  0.00    +0.000 NA
ATOM   1557  C4  A   B  68     -18.484  -8.804  15.361  0.00  0.00    +0.000 A 
ATOM   1558  H   A   B  68     -21.346 -10.518  17.526  0.00  0.00    +0.000 HD
ATOM   1559  H   A   B  68     -20.405 -11.915  17.795  0.00  0.00    +0.000 HD
ENDBRANCH15471548
BRANCH15461560
ATOM   1560  O2' A   B  68     -16.617  -6.934  12.039  0.00  0.00    +0.000 OA
ATOM   1561  H   A   B  68     -16.481  -5.976  12.101  0.00  0.00    +0.000 HD
ENDBRANCH15461560
BRANCH15451562
ATOM   1562  O3' A   B  68     -18.955  -6.495  10.540  0.00  0.00    +0.000 OA
BRANCH15621563
ATOM   1563  P   A   B  69     -19.793  -7.530   9.695  0.00  0.00    +0.000 P 
ATOM   1564  OP1 A   B  69     -19.664  -7.163   8.264  0.00  0.00    +0.000 OA
BRANCH15631565
ATOM   1565  OP2 A   B  69     -21.142  -7.656  10.305  0.00  0.00    +0.000 OA
ATOM   1566  H   A   B  69     -21.670  -8.290   9.795  0.00  0.00    +0.000 HD
ENDBRANCH15631565
BRANCH15631567
ATOM   1567  O5' A   B  69     -19.025  -8.908   9.926  0.00  0.00    +0.000 OA
BRANCH15671568
ATOM   1568  C5' A   B  69     -17.684  -9.074   9.481  0.00  0.00    +0.000 C 
BRANCH15681569
ATOM   1569  C4' A   B  69     -17.080 -10.333  10.057  0.00  0.00    +0.000 C 
ATOM   1570  O4' A   B  69     -17.183 -10.313  11.504  0.00  0.00    +0.000 OA
ATOM   1571  C3' A   B  69     -17.754 -11.632   9.663  0.00  0.00    +0.000 C 
ATOM   1572  C2' A   B  69     -17.330 -12.564  10.785  0.00  0.00    +0.000 C 
ATOM   1573  C1' A   B  69     -17.384 -11.625  11.988  0.00  0.00    +0.000 C 
BRANCH15731574
ATOM   1574  N9  A   B  69     -18.679 -11.686  12.676  0.00  0.00    +0.000 N 
ATOM   1575  C8  A   B  69     -19.669 -10.740  12.699  0.00  0.00    +0.000 A 
ATOM   1576  N7  A   B  69     -20.717 -11.094  13.402  0.00  0.00    +0.000 NA
ATOM   1577  C5  A   B  69     -20.396 -12.356  13.876  0.00  0.00    +0.000 A 
ATOM   1578  C6  A   B  69     -21.087 -13.272  14.682  0.00  0.00    +0.000 A 
ATOM   1579  N6  A   B  69     -22.309 -13.043  15.177  0.00  0.00    +0.000 N 
ATOM   1580  N1  A   B  69     -20.482 -14.442  14.964  0.00  0.00    +0.000 NA
ATOM   1581  C2  A   B  69     -19.263 -14.670  14.467  0.00  0.00    +0.000 A 
ATOM   1582  N3  A   B  69     -18.512 -13.888  13.699  0.00  0.00    +0.000 NA
ATOM   1583  C4  A   B  69     -19.144 -12.731  13.434  0.00  0.00    +0.000 A 
ATOM   1584  H   A   B  69     -22.768 -12.194  14.982  0.00  0.00    +0.000 HD
ATOM   1585  H   A   B  69     -22.749 -13.724  15.736  0.00  0.00    +0.000 HD
ENDBRANCH15731574
BRANCH15721586
ATOM   1586  O2' A   B  69     -16.002 -13.023  10.617  0.00  0.00    +0.000 OA
ATOM   1587  H   A   B  69     -15.403 -12.263  10.549  0.00  0.00    +0.000 HD
ENDBRANCH15721586
BRANCH15711588
ATOM   1588  O3' A   B  69     -17.358 -12.087   8.373  0.00  0.00    +0.000 OA
BRANCH15881589
ATOM   1589  P   A   B  70     -18.398 -12.787   7.400  0.00  0.00    +0.000 P 
ATOM   1590  OP1 A   B  70     -17.711 -13.070   6.121  0.00  0.00    +0.000 OA
BRANCH15891591
ATOM   1591  OP2 A   B  70     -19.646 -11.982   7.410  0.00  0.00    +0.000 OA
ATOM   1592  H   A   B  70     -20.299 -12.391   6.821  0.00  0.00    +0.000 HD
ENDBRANCH15891591
BRANCH15891593
ATOM   1593  O5' A   B  70     -18.706 -14.173   8.130  0.00  0.00    +0.000 OA
BRANCH15931594
ATOM   1594  C5' A   B  70     -17.676 -15.121   8.363  0.00  0.00    +0.000 C 
BRANCH15941595
ATOM   1595  C4' A   B  70     -18.159 -16.222   9.279  0.00  0.00    +0.000 C 
ATOM   1596  O4' A   B  70     -18.584 -15.654  10.543  0.00  0.00    +0.000 OA
ATOM   1597  C3' A   B  70     -19.367 -16.992   8.787  0.00  0.00    +0.000 C 
ATOM   1598  C2' A   B  70     -19.981 -17.514  10.076  0.00  0.00    +0.000 C 
ATOM   1599  C1' A   B  70     -19.708 -16.354  11.035  0.00  0.00    +0.000 C 
BRANCH15991600
ATOM   1600  N9  A   B  70     -20.830 -15.418  11.129  0.00  0.00    +0.000 N 
ATOM   1601  C8  A   B  70     -20.957 -14.195  10.526  0.00  0.00    +0.000 A 
ATOM   1602  N7  A   B  70     -22.078 -13.583  10.806  0.00  0.00    +0.000 NA
ATOM   1603  C5  A   B  70     -22.735 -14.462  11.651  0.00  0.00    +0.000 A 
ATOM   1604  C6  A   B  70     -23.975 -14.398  12.302  0.00  0.00    +0.000 A 
ATOM   1605  N6  A   B  70     -24.810 -13.359  12.187  0.00  0.00    +0.000 N 
ATOM   1606  N1  A   B  70     -24.333 -15.441  13.073  0.00  0.00    +0.000 NA
ATOM   1607  C2  A   B  70     -23.492 -16.474  13.183  0.00  0.00    +0.000 A 
ATOM   1608  N3  A   B  70     -22.303 -16.649  12.624  0.00  0.00    +0.000 NA
ATOM   1609  C4  A   B  70     -21.976 -15.595  11.860  0.00  0.00    +0.000 A 
ATOM   1610  H   A   B  70     -24.563 -12.588  11.627  0.00  0.00    +0.000 HD
ATOM   1611  H   A   B  70     -25.672 -13.365  12.663  0.00  0.00    +0.000 HD
ENDBRANCH15991600
BRANCH15981612
ATOM   1612  O2' A   B  70     -19.314 -18.668  10.551  0.00  0.00    +0.000 OA
ATOM   1613  H   A   B  70     -18.372 -18.471  10.671  0.00  0.00    +0.000 HD
ENDBRANCH15981612
BRANCH15971614
ATOM   1614  O3' A   B  70     -18.991 -18.023   7.885  0.00  0.00    +0.000 OA
BRANCH16141615
ATOM   1615  P   U   B  71     -20.005 -18.619   6.813  0.00  0.00    +0.000 P 
ATOM   1616  OP1 U   B  71     -19.228 -19.041   5.622  0.00  0.00    +0.000 OA
BRANCH16151617
ATOM   1617  OP2 U   B  71     -21.150 -17.683   6.645  0.00  0.00    +0.000 OA
ATOM   1618  H   U   B  71     -21.770 -18.044   5.992  0.00  0.00    +0.000 HD
ENDBRANCH16151617
BRANCH16151619
ATOM   1619  O5' U   B  71     -20.528 -19.929   7.548  0.00  0.00    +0.000 OA
BRANCH16191620
ATOM   1620  C5' U   B  71     -19.616 -20.896   8.052  0.00  0.00    +0.000 C 
BRANCH16201621
ATOM   1621  C4' U   B  71     -20.336 -22.103   8.609  0.00  0.00    +0.000 C 
ATOM   1622  O4' U   B  71     -21.194 -21.679   9.707  0.00  0.00    +0.000 OA
ATOM   1623  C3' U   B  71     -21.238 -22.820   7.612  0.00  0.00    +0.000 C 
ATOM   1624  C2' U   B  71     -22.615 -22.269   7.940  0.00  0.00    +0.000 C 
ATOM   1625  C1' U   B  71     -22.520 -22.082   9.455  0.00  0.00    +0.000 C 
BRANCH16251626
ATOM   1626  N1  U   B  71     -23.422 -21.047   9.986  0.00  0.00    +0.000 N 
ATOM   1627  C2  U   B  71     -24.304 -21.415  10.987  0.00  0.00    +0.000 A 
ATOM   1628  O2  U   B  71     -24.354 -22.545  11.442  0.00  0.00    +0.000 OA
ATOM   1629  N3  U   B  71     -25.122 -20.411  11.440  0.00  0.00    +0.000 N 
ATOM   1630  C4  U   B  71     -25.146 -19.105  11.004  0.00  0.00    +0.000 A 
ATOM   1631  O4  U   B  71     -25.941 -18.321  11.510  0.00  0.00    +0.000 OA
ATOM   1632  C5  U   B  71     -24.210 -18.803   9.965  0.00  0.00    +0.000 A 
ATOM   1633  C6  U   B  71     -23.400 -19.762   9.505  0.00  0.00    +0.000 A 
ATOM   1634  H   U   B  71     -25.759 -20.649  12.152  0.00  0.00    +0.000 HD
ENDBRANCH16251626
BRANCH16241635
ATOM   1635  O2' U   B  71     -23.703 -23.117   7.594  0.00  0.00    +0.000 OA
ATOM   1636  H   U   B  71     -23.611 -23.966   8.055  0.00  0.00    +0.000 HD
ENDBRANCH16241635
BRANCH16231637
ATOM   1637  O3' U   B  71     -21.202 -24.229   7.849  0.00  0.00    +0.000 OA
BRANCH16371638
ATOM   1638  P   C   B  72     -20.370 -25.152   6.839  0.00  0.00    +0.000 P 
ATOM   1639  OP2 C   B  72     -19.145 -24.426   6.409  0.00  0.00    +0.000 OA
BRANCH16381640
ATOM   1640  OP1 C   B  72     -20.250 -26.502   7.447  0.00  0.00    +0.000 OA
ATOM   1641  H   C   B  72     -19.748 -27.081   6.852  0.00  0.00    +0.000 HD
ENDBRANCH16381640
BRANCH16381642
ATOM   1642  O5' C   B  72     -21.339 -25.266   5.582  0.00  0.00    +0.000 OA
BRANCH16421643
ATOM   1643  C5' C   B  72     -22.523 -26.056   5.644  0.00  0.00    +0.000 C 
BRANCH16431644
ATOM   1644  C4' C   B  72     -23.331 -25.928   4.381  0.00  0.00    +0.000 C 
ATOM   1645  O4' C   B  72     -23.853 -24.577   4.260  0.00  0.00    +0.000 OA
ATOM   1646  C3' C   B  72     -22.576 -26.139   3.088  0.00  0.00    +0.000 C 
ATOM   1647  C2' C   B  72     -23.475 -25.434   2.079  0.00  0.00    +0.000 C 
ATOM   1648  C1' C   B  72     -23.940 -24.222   2.889  0.00  0.00    +0.000 C 
BRANCH16481649
ATOM   1649  N1  C   B  72     -23.104 -23.021   2.650  0.00  0.00    +0.000 N 
ATOM   1650  C2  C   B  72     -23.305 -22.285   1.478  0.00  0.00    +0.000 A 
ATOM   1651  O2  C   B  72     -24.177 -22.658   0.677  0.00  0.00    +0.000 OA
ATOM   1652  N3  C   B  72     -22.549 -21.189   1.243  0.00  0.00    +0.000 NA
ATOM   1653  C4  C   B  72     -21.623 -20.815   2.124  0.00  0.00    +0.000 A 
ATOM   1654  N4  C   B  72     -20.903 -19.726   1.851  0.00  0.00    +0.000 N 
ATOM   1655  C5  C   B  72     -21.396 -21.544   3.325  0.00  0.00    +0.000 A 
ATOM   1656  C6  C   B  72     -22.151 -22.628   3.546  0.00  0.00    +0.000 A 
ATOM   1657  H   C   B  72     -21.064 -19.225   1.019  0.00  0.00    +0.000 HD
ATOM   1658  H   C   B  72     -20.211 -19.423   2.482  0.00  0.00    +0.000 HD
ENDBRANCH16481649
BRANCH16471659
ATOM   1659  O2' C   B  72     -24.595 -26.220   1.734  0.00  0.00    +0.000 OA
ATOM   1660  H   C   B  72     -25.086 -26.453   2.537  0.00  0.00    +0.000 HD
ENDBRANCH16471659
BRANCH16461661
ATOM   1661  O3' C   B  72     -22.355 -27.510   2.787  0.00  0.00    +0.000 OA
BRANCH16611662
ATOM   1662  P   U   B  73     -21.001 -27.963   2.041  0.00  0.00    +0.000 P 
ATOM   1663  OP1 U   B  73     -21.024 -29.439   1.916  0.00  0.00    +0.000 OA
BRANCH16621664
ATOM   1664  OP2 U   B  73     -19.852 -27.296   2.700  0.00  0.00    +0.000 OA
ATOM   1665  H   U   B  73     -19.029 -27.560   2.260  0.00  0.00    +0.000 HD
ENDBRANCH16621664
BRANCH16621666
ATOM   1666  O5' U   B  73     -21.162 -27.339   0.584  0.00  0.00    +0.000 OA
BRANCH16661667
ATOM   1667  C5' U   B  73     -22.196 -27.774  -0.290  0.00  0.00    +0.000 C 
BRANCH16671668
ATOM   1668  C4' U   B  73     -22.299 -26.885  -1.506  0.00  0.00    +0.000 C 
ATOM   1669  O4' U   B  73     -22.549 -25.512  -1.098  0.00  0.00    +0.000 OA
ATOM   1670  C3' U   B  73     -21.062 -26.789  -2.366  0.00  0.00    +0.000 C 
ATOM   1671  C2' U   B  73     -21.291 -25.481  -3.109  0.00  0.00    +0.000 C 
ATOM   1672  C1' U   B  73     -21.954 -24.626  -2.027  0.00  0.00    +0.000 C 
BRANCH16721673
ATOM   1673  N1  U   B  73     -20.991 -23.758  -1.318  0.00  0.00    +0.000 N 
ATOM   1674  C2  U   B  73     -20.564 -22.609  -1.965  0.00  0.00    +0.000 A 
ATOM   1675  O2  U   B  73     -20.947 -22.298  -3.078  0.00  0.00    +0.000 OA
ATOM   1676  N3  U   B  73     -19.671 -21.837  -1.265  0.00  0.00    +0.000 N 
ATOM   1677  C4  U   B  73     -19.173 -22.088  -0.009  0.00  0.00    +0.000 A 
ATOM   1678  O4  U   B  73     -18.372 -21.294   0.491  0.00  0.00    +0.000 OA
ATOM   1679  C5  U   B  73     -19.659 -23.291   0.600  0.00  0.00    +0.000 A 
ATOM   1680  C6  U   B  73     -20.533 -24.065  -0.061  0.00  0.00    +0.000 A 
ATOM   1681  H   U   B  73     -19.354 -21.018  -1.709  0.00  0.00    +0.000 HD
ENDBRANCH16721673
BRANCH16711682
ATOM   1682  O2' U   B  73     -22.186 -25.634  -4.191  0.00  0.00    +0.000 OA
ATOM   1683  H   U   B  73     -23.025 -25.997  -3.868  0.00  0.00    +0.000 HD
ENDBRANCH16711682
BRANCH16701684
ATOM   1684  O3' U   B  73     -20.910 -27.906  -3.231  0.00  0.00    +0.000 OA
BRANCH16841685
ATOM   1685  P   C   B  74     -19.452 -28.509  -3.527  0.00  0.00    +0.000 P 
ATOM   1686  OP1 C   B  74     -19.621 -29.699  -4.393  0.00  0.00    +0.000 OA
BRANCH16851687
ATOM   1687  OP2 C   B  74     -18.724 -28.631  -2.237  0.00  0.00    +0.000 OA
ATOM   1688  H   C   B  74     -17.839 -28.995  -2.398  0.00  0.00    +0.000 HD
ENDBRANCH16851687
BRANCH16851689
ATOM   1689  O5' C   B  74     -18.741 -27.365  -4.384  0.00  0.00    +0.000 OA
BRANCH16891690
ATOM   1690  C5' C   B  74     -19.209 -27.016  -5.679  0.00  0.00    +0.000 C 
BRANCH16901691
ATOM   1691  C4' C   B  74     -18.502 -25.788  -6.194  0.00  0.00    +0.000 C 
ATOM   1692  O4' C   B  74     -18.768 -24.666  -5.310  0.00  0.00    +0.000 OA
ATOM   1693  C3' C   B  74     -16.993 -25.869  -6.247  0.00  0.00    +0.000 C 
ATOM   1694  C2' C   B  74     -16.577 -24.406  -6.190  0.00  0.00    +0.000 C 
ATOM   1695  C1' C   B  74     -17.641 -23.816  -5.261  0.00  0.00    +0.000 C 
BRANCH16951696
ATOM   1696  N1  C   B  74     -17.194 -23.702  -3.856  0.00  0.00    +0.000 N 
ATOM   1697  C2  C   B  74     -16.418 -22.600  -3.483  0.00  0.00    +0.000 A 
ATOM   1698  O2  C   B  74     -16.122 -21.756  -4.343  0.00  0.00    +0.000 OA
ATOM   1699  N3  C   B  74     -16.009 -22.477  -2.198  0.00  0.00    +0.000 NA
ATOM   1700  C4  C   B  74     -16.349 -23.402  -1.297  0.00  0.00    +0.000 A 
ATOM   1701  N4  C   B  74     -15.924 -23.237  -0.041  0.00  0.00    +0.000 N 
ATOM   1702  C5  C   B  74     -17.141 -24.536  -1.650  0.00  0.00    +0.000 A 
ATOM   1703  C6  C   B  74     -17.538 -24.643  -2.925  0.00  0.00    +0.000 A 
ATOM   1704  H   C   B  74     -15.378 -22.452   0.195  0.00  0.00    +0.000 HD
ATOM   1705  H   C   B  74     -16.157 -23.900   0.649  0.00  0.00    +0.000 HD
ENDBRANCH16951696
BRANCH16941706
ATOM   1706  O2' C   B  74     -16.668 -23.784  -7.454  0.00  0.00    +0.000 OA
ATOM   1707  H   C   B  74     -17.572 -23.874  -7.794  0.00  0.00    +0.000 HD
ENDBRANCH16941706
BRANCH16931708
ATOM   1708  O3' C   B  74     -16.538 -26.534  -7.419  0.00  0.00    +0.000 OA
BRANCH17081709
ATOM   1709  P   C   B  75     -15.400 -27.664  -7.343  0.00  0.00    +0.000 P 
ATOM   1710  OP1 C   B  75     -15.297 -28.293  -8.679  0.00  0.00    +0.000 OA
BRANCH17091711
ATOM   1711  OP2 C   B  75     -15.656 -28.512  -6.149  0.00  0.00    +0.000 OA
ATOM   1712  H   C   B  75     -16.463 -29.031  -6.288  0.00  0.00    +0.000 HD
ENDBRANCH17091711
BRANCH17091713
ATOM   1713  O5' C   B  75     -14.068 -26.830  -7.073  0.00  0.00    +0.000 OA
BRANCH17131714
ATOM   1714  C5' C   B  75     -13.631 -25.841  -7.987  0.00  0.00    +0.000 C 
BRANCH17141715
ATOM   1715  C4' C   B  75     -12.395 -25.128  -7.485  0.00  0.00    +0.000 C 
ATOM   1716  O4' C   B  75     -12.696 -24.512  -6.195  0.00  0.00    +0.000 OA
ATOM   1717  C3' C   B  75     -11.185 -26.030  -7.258  0.00  0.00    +0.000 C 
ATOM   1718  C2' C   B  75     -11.229 -26.287  -5.762  0.00  0.00    +0.000 C 
ATOM   1719  C1' C   B  75     -11.776 -24.965  -5.227  0.00  0.00    +0.000 C 
BRANCH17191720
ATOM   1720  N1  C   B  75     -12.472 -25.111  -3.934  0.00  0.00    +0.000 N 
ATOM   1721  C2  C   B  75     -12.019 -24.382  -2.828  0.00  0.00    +0.000 A 
ATOM   1722  O2  C   B  75     -11.052 -23.616  -2.962  0.00  0.00    +0.000 OA
ATOM   1723  N3  C   B  75     -12.652 -24.523  -1.635  0.00  0.00    +0.000 NA
ATOM   1724  C4  C   B  75     -13.694 -25.352  -1.532  0.00  0.00    +0.000 A 
ATOM   1725  N4  C   B  75     -14.287 -25.459  -0.339  0.00  0.00    +0.000 N 
ATOM   1726  C5  C   B  75     -14.172 -26.110  -2.648  0.00  0.00    +0.000 A 
ATOM   1727  C6  C   B  75     -13.539 -25.957  -3.817  0.00  0.00    +0.000 A 
ATOM   1728  H   C   B  75     -15.058 -26.060  -0.225  0.00  0.00    +0.000 HD
ATOM   1729  H   C   B  75     -13.953 -24.937   0.426  0.00  0.00    +0.000 HD
ENDBRANCH17191720
BRANCH17181730
ATOM   1730  O2' C   B  75      -9.975 -26.594  -5.169  0.00  0.00    +0.000 OA
ATOM   1731  H   C   B  75      -9.358 -25.861  -5.321  0.00  0.00    +0.000 HD
ENDBRANCH17181730
BRANCH17171732
ATOM   1732  O3' C   B  75      -9.984 -25.343  -7.602  0.00  0.00    +0.000 OA
BRANCH17321733
ATOM   1733  P   A   B  76      -9.045 -25.957  -8.742  0.00  0.00    +0.000 P 
ATOM   1734  OP2 A   B  76      -9.918 -26.519  -9.800  0.00  0.00    +0.000 OA
BRANCH17331735
ATOM   1735  OP1 A   B  76      -8.016 -24.948  -9.108  0.00  0.00    +0.000 OA
ATOM   1736  H   A   B  76      -7.440 -25.310  -9.800  0.00  0.00    +0.000 HD
ENDBRANCH17331735
BRANCH17331737
ATOM   1737  O5' A   B  76      -8.325 -27.166  -8.000  0.00  0.00    +0.000 OA
BRANCH17371738
ATOM   1738  C5' A   B  76      -7.165 -26.944  -7.203  0.00  0.00    +0.000 C 
BRANCH17381739
ATOM   1739  C4' A   B  76      -6.641 -28.256  -6.673  0.00  0.00    +0.000 C 
ATOM   1740  O4' A   B  76      -7.571 -28.789  -5.695  0.00  0.00    +0.000 OA
ATOM   1741  C3' A   B  76      -6.496 -29.361  -7.699  0.00  0.00    +0.000 C 
ATOM   1742  C2' A   B  76      -6.591 -30.619  -6.850  0.00  0.00    +0.000 C 
ATOM   1743  C1' A   B  76      -7.629 -30.195  -5.805  0.00  0.00    +0.000 C 
BRANCH17431744
ATOM   1744  N9  A   B  76      -8.994 -30.575  -6.183  0.00  0.00    +0.000 N 
ATOM   1745  C8  A   B  76      -9.948 -29.795  -6.778  0.00  0.00    +0.000 A 
ATOM   1746  N7  A   B  76     -11.080 -30.422  -6.982  0.00  0.00    +0.000 NA
ATOM   1747  C5  A   B  76     -10.858 -31.695  -6.493  0.00  0.00    +0.000 A 
ATOM   1748  C6  A   B  76     -11.672 -32.834  -6.413  0.00  0.00    +0.000 A 
ATOM   1749  N1  A   B  76     -11.139 -33.946  -5.865  0.00  0.00    +0.000 NA
ATOM   1750  C2  A   B  76      -9.874 -33.909  -5.426  0.00  0.00    +0.000 A 
ATOM   1751  N3  A   B  76      -9.015 -32.896  -5.447  0.00  0.00    +0.000 NA
ATOM   1752  C4  A   B  76      -9.576 -31.805  -5.998  0.00  0.00    +0.000 A 
BRANCH17481753
ATOM   1753  N6  A   B  76     -12.940 -32.866  -6.851  0.00  0.00    +0.000 N 
ATOM   1754  H   A   B  76     -13.342 -32.062  -7.253  0.00  0.00    +0.000 HD
ATOM   1755  H   A   B  76     -13.468 -33.693  -6.770  0.00  0.00    +0.000 HD
ENDBRANCH17481753
ENDBRANCH17431744
BRANCH17421756
ATOM   1756  O2' A   B  76      -5.368 -30.912  -6.199  0.00  0.00    +0.000 OA
ATOM   1757  H   A   B  76      -5.096 -30.150  -5.664  0.00  0.00    +0.000 HD
ENDBRANCH17421756
BRANCH17411758
ATOM   1758  O3' A   B  76      -5.286 -29.261  -8.428  0.00  0.00    +0.000 OA
ATOM   1759  H   A   B  76      -4.536 -29.278  -7.813  0.00  0.00    +0.000 HD
ENDBRANCH17411758
ENDBRANCH17381739
ENDBRANCH17371738
ENDBRANCH17331737
ENDBRANCH17321733
ENDBRANCH17171732
ENDBRANCH17141715
ENDBRANCH17131714
ENDBRANCH17091713
ENDBRANCH17081709
ENDBRANCH16931708
ENDBRANCH16901691
ENDBRANCH16891690
ENDBRANCH16851689
ENDBRANCH16841685
ENDBRANCH16701684
ENDBRANCH16671668
ENDBRANCH16661667
ENDBRANCH16621666
ENDBRANCH16611662
ENDBRANCH16461661
ENDBRANCH16431644
ENDBRANCH16421643
ENDBRANCH16381642
ENDBRANCH16371638
ENDBRANCH16231637
ENDBRANCH16201621
ENDBRANCH16191620
ENDBRANCH16151619
ENDBRANCH16141615
ENDBRANCH15971614
ENDBRANCH15941595
ENDBRANCH15931594
ENDBRANCH15891593
ENDBRANCH15881589
ENDBRANCH15711588
ENDBRANCH15681569
ENDBRANCH15671568
ENDBRANCH15631567
ENDBRANCH15621563
ENDBRANCH15451562
ENDBRANCH15421543
ENDBRANCH15411542
ENDBRANCH15371541
ENDBRANCH15361537
ENDBRANCH15191536
ENDBRANCH15161517
ENDBRANCH15151516
ENDBRANCH15111515
ENDBRANCH15101511
ENDBRANCH 6141510
BRANCH   11760
ATOM   1760  C5' U   B   5     -13.673  -9.798  19.694  0.00  0.00    +0.000 C 
BRANCH17601761
ATOM   1761  O5' U   B   5     -13.357 -11.094  20.189  0.00  0.00    +0.000 OA
BRANCH17611762
ATOM   1762  P   U   B   5     -12.374 -12.055  19.384  0.00  0.00    +0.000 P 
ATOM   1763  OP1 U   B   5     -11.114 -11.316  19.119  0.00  0.00    +0.000 OA
BRANCH17621764
ATOM   1764  OP2 U   B   5     -12.328 -13.361  20.095  0.00  0.00    +0.000 OA
ATOM   1765  H   U   B   5     -11.734 -13.965  19.623  0.00  0.00    +0.000 HD
ENDBRANCH17621764
BRANCH17621766
ATOM   1766  O3' A   B   4     -13.117 -12.261  17.987  0.00  0.00    +0.000 OA
BRANCH17661769
ATOM   1767  C4' A   B   4     -14.329 -13.823  16.556  0.00  0.00    +0.000 C 
ATOM   1768  O4' A   B   4     -15.722 -14.225  16.465  0.00  0.00    +0.000 OA
ATOM   1769  C3' A   B   4     -14.234 -13.136  17.902  0.00  0.00    +0.000 C 
ATOM   1770  C2' A   B   4     -15.572 -12.416  17.991  0.00  0.00    +0.000 C 
ATOM   1771  C1' A   B   4     -16.503 -13.443  17.346  0.00  0.00    +0.000 C 
BRANCH17711772
ATOM   1772  N9  A   B   4     -17.123 -14.331  18.340  0.00  0.00    +0.000 N 
ATOM   1773  C8  A   B   4     -16.783 -15.624  18.643  0.00  0.00    +0.000 A 
ATOM   1774  N7  A   B   4     -17.527 -16.156  19.581  0.00  0.00    +0.000 NA
ATOM   1775  C5  A   B   4     -18.417 -15.148  19.918  0.00  0.00    +0.000 A 
ATOM   1776  C6  A   B   4     -19.469 -15.081  20.846  0.00  0.00    +0.000 A 
ATOM   1777  N6  A   B   4     -19.810 -16.094  21.646  0.00  0.00    +0.000 N 
ATOM   1778  N1  A   B   4     -20.160 -13.926  20.931  0.00  0.00    +0.000 NA
ATOM   1779  C2  A   B   4     -19.814 -12.914  20.130  0.00  0.00    +0.000 A 
ATOM   1780  N3  A   B   4     -18.849 -12.856  19.217  0.00  0.00    +0.000 NA
ATOM   1781  C4  A   B   4     -18.179 -14.019  19.159  0.00  0.00    +0.000 A 
ATOM   1782  H   A   B   4     -19.318 -16.945  21.599  0.00  0.00    +0.000 HD
ATOM   1783  H   A   B   4     -20.554 -15.990  22.283  0.00  0.00    +0.000 HD
ENDBRANCH17711772
BRANCH17701784
ATOM   1784  O2' A   B   4     -15.586 -11.231  17.217  0.00  0.00    +0.000 OA
ATOM   1785  H   A   B   4     -15.362 -11.443  16.297  0.00  0.00    +0.000 HD
ENDBRANCH17701784
BRANCH17671786
ATOM   1786  C5' A   B   4     -13.436 -15.025  16.372  0.00  0.00    +0.000 C 
BRANCH17861787
ATOM   1787  O5' A   B   4     -13.643 -15.975  17.411  0.00  0.00    +0.000 OA
BRANCH17871788
ATOM   1788  P   A   B   4     -13.031 -17.445  17.308  0.00  0.00    +0.000 P 
ATOM   1789  OP1 A   B   4     -11.577 -17.319  17.041  0.00  0.00    +0.000 OA
BRANCH17881790
ATOM   1790  OP2 A   B   4     -13.499 -18.217  18.487  0.00  0.00    +0.000 OA
ATOM   1791  H   A   B   4     -13.139 -19.117  18.448  0.00  0.00    +0.000 HD
ENDBRANCH17881790
BRANCH17881792
ATOM   1792  O3' A   B   3     -13.713 -18.032  15.999  0.00  0.00    +0.000 OA
BRANCH17921795
ATOM   1793  C4' A   B   3     -15.325 -19.629  15.099  0.00  0.00    +0.000 C 
ATOM   1794  O4' A   B   3     -16.762 -19.593  14.889  0.00  0.00    +0.000 OA
ATOM   1795  C3' A   B   3     -15.068 -18.468  16.038  0.00  0.00    +0.000 C 
ATOM   1796  C2' A   B   3     -16.055 -17.424  15.536  0.00  0.00    +0.000 C 
ATOM   1797  C1' A   B   3     -17.255 -18.297  15.176  0.00  0.00    +0.000 C 
BRANCH17971798
ATOM   1798  N9  A   B   3     -18.226 -18.390  16.276  0.00  0.00    +0.000 N 
ATOM   1799  C8  A   B   3     -18.450 -19.449  17.117  0.00  0.00    +0.000 A 
ATOM   1800  N7  A   B   3     -19.393 -19.225  18.000  0.00  0.00    +0.000 NA
ATOM   1801  C5  A   B   3     -19.818 -17.934  17.720  0.00  0.00    +0.000 A 
ATOM   1802  C6  A   B   3     -20.799 -17.108  18.296  0.00  0.00    +0.000 A 
ATOM   1803  N6  A   B   3     -21.563 -17.480  19.327  0.00  0.00    +0.000 N 
ATOM   1804  N1  A   B   3     -20.970 -15.875  17.775  0.00  0.00    +0.000 NA
ATOM   1805  C2  A   B   3     -20.203 -15.503  16.743  0.00  0.00    +0.000 A 
ATOM   1806  N3  A   B   3     -19.253 -16.188  16.115  0.00  0.00    +0.000 NA
ATOM   1807  C4  A   B   3     -19.109 -17.410  16.659  0.00  0.00    +0.000 A 
ATOM   1808  H   A   B   3     -21.455 -18.375  19.722  0.00  0.00    +0.000 HD
ATOM   1809  H   A   B   3     -22.234 -16.859  19.692  0.00  0.00    +0.000 HD
ENDBRANCH17971798
BRANCH17961810
ATOM   1810  O2' A   B   3     -15.586 -16.776  14.366  0.00  0.00    +0.000 OA
ATOM   1811  H   A   B   3     -15.398 -17.438  13.683  0.00  0.00    +0.000 HD
ENDBRANCH17961810
BRANCH17931812
ATOM   1812  C5' A   B   3     -14.914 -20.988  15.610  0.00  0.00    +0.000 C 
BRANCH18121813
ATOM   1813  O5' A   B   3     -15.518 -21.263  16.870  0.00  0.00    +0.000 OA
BRANCH18131814
ATOM   1814  P   A   B   3     -15.440 -22.722  17.506  0.00  0.00    +0.000 P 
ATOM   1815  OP1 A   B   3     -14.018 -23.144  17.519  0.00  0.00    +0.000 OA
BRANCH18141816
ATOM   1816  OP2 A   B   3     -16.218 -22.704  18.771  0.00  0.00    +0.000 OA
ATOM   1817  H   A   B   3     -17.123 -22.406  18.590  0.00  0.00    +0.000 HD
ENDBRANCH18141816
BRANCH18141818
ATOM   1818  O3' U   B   2     -16.198 -23.615  16.434  0.00  0.00    +0.000 OA
BRANCH18181821
ATOM   1819  C4' U   B   2     -18.242 -24.880  15.984  0.00  0.00    +0.000 C 
ATOM   1820  O4' U   B   2     -19.536 -24.528  15.419  0.00  0.00    +0.000 OA
ATOM   1821  C3' U   B   2     -17.619 -23.544  16.324  0.00  0.00    +0.000 C 
ATOM   1822  C2' U   B   2     -18.091 -22.661  15.172  0.00  0.00    +0.000 C 
ATOM   1823  C1' U   B   2     -19.514 -23.186  14.967  0.00  0.00    +0.000 C 
BRANCH18231824
ATOM   1824  N1  U   B   2     -20.515 -22.406  15.729  0.00  0.00    +0.000 N 
ATOM   1825  C2  U   B   2     -20.865 -21.152  15.252  0.00  0.00    +0.000 A 
ATOM   1826  O2  U   B   2     -20.384 -20.666  14.239  0.00  0.00    +0.000 OA
ATOM   1827  N3  U   B   2     -21.799 -20.479  16.002  0.00  0.00    +0.000 N 
ATOM   1828  C4  U   B   2     -22.408 -20.924  17.154  0.00  0.00    +0.000 A 
ATOM   1829  O4  U   B   2     -23.232 -20.200  17.719  0.00  0.00    +0.000 OA
ATOM   1830  C5  U   B   2     -22.001 -22.229  17.584  0.00  0.00    +0.000 A 
ATOM   1831  C6  U   B   2     -21.095 -22.910  16.871  0.00  0.00    +0.000 A 
ATOM   1832  H   U   B   2     -22.060 -19.585  15.682  0.00  0.00    +0.000 HD
ENDBRANCH18231824
BRANCH18221833
ATOM   1833  O2' U   B   2     -17.336 -22.880  13.996  0.00  0.00    +0.000 OA
ATOM   1834  H   U   B   2     -17.374 -23.819  13.757  0.00  0.00    +0.000 HD
ENDBRANCH18221833
BRANCH18191835
ATOM   1835  C5' U   B   2     -18.425 -25.827  17.141  0.00  0.00    +0.000 C 
BRANCH18351836
ATOM   1836  O5' U   B   2     -19.251 -25.254  18.146  0.00  0.00    +0.000 OA
BRANCH18361837
ATOM   1837  P   U   B   2     -19.426 -25.942  19.578  0.00  0.00    +0.000 P 
ATOM   1838  OP2 U   B   2     -20.637 -25.365  20.214  0.00  0.00    +0.000 OA
BRANCH18371839
ATOM   1839  OP1 U   B   2     -18.124 -25.886  20.278  0.00  0.00    +0.000 OA
ATOM   1840  H   U   B   2     -17.443 -26.304  19.728  0.00  0.00    +0.000 HD
ENDBRANCH18371839
BRANCH18371841
ATOM   1841  O3' C   B   1     -19.671 -27.505  19.205  0.00  0.00    +0.000 OA
BRANCH18411844
ATOM   1842  C4' C   B   1     -21.243 -29.293  19.633  0.00  0.00    +0.000 C 
ATOM   1843  O4' C   B   1     -22.302 -29.912  18.860  0.00  0.00    +0.000 OA
ATOM   1844  C3' C   B   1     -20.979 -27.988  18.930  0.00  0.00    +0.000 C 
ATOM   1845  C2' C   B   1     -21.187 -28.348  17.468  0.00  0.00    +0.000 C 
ATOM   1846  C1' C   B   1     -22.319 -29.374  17.556  0.00  0.00    +0.000 C 
BRANCH18461847
ATOM   1847  N1  C   B   1     -23.655 -28.818  17.295  0.00  0.00    +0.000 N 
ATOM   1848  C2  C   B   1     -24.033 -28.578  15.975  0.00  0.00    +0.000 A 
ATOM   1849  O2  C   B   1     -23.239 -28.828  15.054  0.00  0.00    +0.000 OA
ATOM   1850  N3  C   B   1     -25.263 -28.071  15.723  0.00  0.00    +0.000 NA
ATOM   1851  C4  C   B   1     -26.102 -27.814  16.731  0.00  0.00    +0.000 A 
ATOM   1852  N4  C   B   1     -27.306 -27.322  16.436  0.00  0.00    +0.000 N 
ATOM   1853  C5  C   B   1     -25.744 -28.058  18.088  0.00  0.00    +0.000 A 
ATOM   1854  C6  C   B   1     -24.522 -28.555  18.322  0.00  0.00    +0.000 A 
ATOM   1855  H   C   B   1     -27.553 -27.154  15.498  0.00  0.00    +0.000 HD
ATOM   1856  H   C   B   1     -27.948 -27.127  17.156  0.00  0.00    +0.000 HD
ENDBRANCH18461847
BRANCH18451857
ATOM   1857  O2' C   B   1     -20.039 -28.959  16.920  0.00  0.00    +0.000 OA
ATOM   1858  H   C   B   1     -19.806 -29.740  17.446  0.00  0.00    +0.000 HD
ENDBRANCH18451857
BRANCH18421859
ATOM   1859  C5' C   B   1     -21.663 -29.186  21.073  0.00  0.00    +0.000 C 
BRANCH18591860
ATOM   1860  O5' C   B   1     -22.753 -28.289  21.217  0.00  0.00    +0.000 OA
BRANCH18601861
ATOM   1861  P   C   B   1     -23.442 -28.010  22.638  0.00  0.00    +0.000 P 
BRANCH18611862
ATOM   1862  OP1 C   B   1     -22.494 -27.522  23.568  0.00  0.00    +0.000 OA
ATOM   1863  H   C   B   1     -21.776 -28.167  23.667  0.00  0.00    +0.000 HD
ENDBRANCH18611862
BRANCH18611864
ATOM   1864  OP3 C   B   1     -23.820 -27.108  22.921  0.00  0.00    +0.000 OA
BRANCH18641865
ATOM   1865  OP2 C   B   1     -24.784 -27.525  22.413  0.00  0.00    +0.000 OA
ATOM   1866  H   C   B   1     -25.493 -26.866  22.476  0.00  0.00    +0.000 HD
ENDBRANCH18641865
ENDBRANCH18611864
ENDBRANCH18601861
ENDBRANCH18591860
ENDBRANCH18421859
ENDBRANCH18411844
ENDBRANCH18371841
ENDBRANCH18361837
ENDBRANCH18351836
ENDBRANCH18191835
ENDBRANCH18181821
ENDBRANCH18141818
ENDBRANCH18131814
ENDBRANCH18121813
ENDBRANCH17931812
ENDBRANCH17921795
ENDBRANCH17881792
ENDBRANCH17871788
ENDBRANCH17861787
ENDBRANCH17671786
ENDBRANCH17661769
ENDBRANCH17621766
ENDBRANCH17611762
ENDBRANCH17601761
ENDBRANCH   11760
TORSDOF 311
