REMARK  Name = /storage/kiran-stuff/aaRS/phase2/energy_scoring/vina_182jobs/fulllength_shallow_pro_PRO/ligand.h.pdb
REMARK  2 active torsions:
REMARK  status: ('A' for Active; 'I' for Inactive)
REMARK    1  A    between atoms: CA_2  and  C_3
REMARK    2  A    between atoms: C_3  and  O_4
REMARK                            x       y       z     vdW  Elec       q    Type
REMARK                         _______ _______ _______ _____ _____    ______ ____
ROOT
ATOM      1  N   PRO C   1      40.764 -24.932  -4.107  0.00  0.00    +0.000 NA
ATOM      2  CA  PRO C   1      40.065 -25.835  -3.200  0.00  0.00    +0.000 C 
ATOM      3  CB  PRO C   1      40.238 -25.215  -1.860  0.00  0.00    +0.000 C 
ATOM      4  CG  PRO C   1      40.446 -23.810  -2.135  0.00  0.00    +0.000 C 
ATOM      5  CD  PRO C   1      41.156 -23.755  -3.411  0.00  0.00    +0.000 C 
ATOM      6  H   PRO C   1      41.593 -25.398  -4.477  0.00  0.00    +0.000 HD
ENDROOT
BRANCH   2   7
ATOM      7  C   PRO C   1      38.587 -25.927  -3.549  0.00  0.00    +0.000 C 
ATOM      8  OXT PRO C   1      38.194 -25.377  -4.570  0.00  0.00    +0.000 OA
BRANCH   7   9
ATOM      9  O   PRO C   1      37.850 -26.580  -2.803  0.00  0.00    +0.000 OA
ATOM     10  H   PRO C   1      38.201 -26.982  -2.033  0.00  0.00    +0.000 HD
ENDBRANCH   7   9
ENDBRANCH   2   7
TORSDOF 2
