REMARK  Name = /storage/kiran-stuff/aaRS/phase2/energy_scoring/vina_182jobs/fulllength_shallow_pro_PRO/ligand.h.pdb
REMARK  623 active torsions:
REMARK  status: ('A' for Active; 'I' for Inactive)
REMARK    1  A    between atoms: P_2  and  OP1_3
REMARK    2  A    between atoms: P_2  and  OP2_4
REMARK    3  A    between atoms: P_2  and  O5'_5
REMARK    4  A    between atoms: O5'_5  and  C5'_6
REMARK    5  A    between atoms: C5'_6  and  C4'_7
REMARK    6  A    between atoms: C3'_9  and  O3'_10
REMARK    7  A    between atoms: O3'_10  and  P_22
REMARK    8  A    between atoms: C2'_11  and  O2'_12
REMARK    9  A    between atoms: C1'_13  and  N1_14
REMARK   10  A    between atoms: P_22  and  OP2_24
REMARK   11  A    between atoms: P_22  and  O5'_25
REMARK   12  A    between atoms: O5'_25  and  C5'_26
REMARK   13  A    between atoms: C5'_26  and  C4'_27
REMARK   14  A    between atoms: C3'_29  and  O3'_30
REMARK   15  A    between atoms: O3'_30  and  P_42
REMARK   16  A    between atoms: C2'_31  and  O2'_32
REMARK   17  A    between atoms: C1'_33  and  N1_34
REMARK   18  A    between atoms: P_42  and  OP2_44
REMARK   19  A    between atoms: P_42  and  O5'_45
REMARK   20  A    between atoms: O5'_45  and  C5'_46
REMARK   21  A    between atoms: C5'_46  and  C4'_47
REMARK   22  A    between atoms: C3'_49  and  O3'_50
REMARK   23  A    between atoms: O3'_50  and  P_64
REMARK   24  A    between atoms: C2'_51  and  O2'_52
REMARK   25  A    between atoms: C1'_53  and  N9_54
REMARK   26  A    between atoms: P_64  and  OP2_66
REMARK   27  A    between atoms: P_64  and  O5'_67
REMARK   28  A    between atoms: O5'_67  and  C5'_68
REMARK   29  A    between atoms: C5'_68  and  C4'_69
REMARK   30  A    between atoms: C3'_71  and  O3'_72
REMARK   31  A    between atoms: O3'_72  and  P_86
REMARK   32  A    between atoms: C2'_73  and  O2'_74
REMARK   33  A    between atoms: C1'_75  and  N9_76
REMARK   34  A    between atoms: P_86  and  OP1_87
REMARK   35  A    between atoms: P_86  and  O5'_89
REMARK   36  A    between atoms: O5'_89  and  C5'_90
REMARK   37  A    between atoms: C5'_90  and  C4'_91
REMARK   38  A    between atoms: C3'_93  and  O3'_94
REMARK   39  A    between atoms: O3'_94  and  P_106
REMARK   40  A    between atoms: C2'_95  and  O2'_96
REMARK   41  A    between atoms: C1'_97  and  N1_98
REMARK   42  A    between atoms: P_106  and  OP1_107
REMARK   43  A    between atoms: P_106  and  O5'_109
REMARK   44  A    between atoms: O5'_109  and  C5'_110
REMARK   45  A    between atoms: C5'_110  and  C4'_111
REMARK   46  A    between atoms: C3'_113  and  O3'_114
REMARK   47  A    between atoms: O3'_114  and  P_128
REMARK   48  A    between atoms: C2'_115  and  O2'_116
REMARK   49  A    between atoms: C1'_117  and  N9_118
REMARK   50  A    between atoms: C6_122  and  N6_123
REMARK   51  A    between atoms: P_128  and  OP1_129
REMARK   52  A    between atoms: P_128  and  O5'_131
REMARK   53  A    between atoms: O5'_131  and  C5'_132
REMARK   54  A    between atoms: C5'_132  and  C4'_133
REMARK   55  A    between atoms: C3'_135  and  O3'_136
REMARK   56  A    between atoms: O3'_136  and  P_148
REMARK   57  A    between atoms: C2'_137  and  O2'_138
REMARK   58  A    between atoms: C1'_139  and  N1_140
REMARK   59  A    between atoms: P_148  and  OP1_149
REMARK   60  A    between atoms: P_148  and  O5'_151
REMARK   61  A    between atoms: O5'_151  and  C5'_152
REMARK   62  A    between atoms: C5'_152  and  C4'_153
REMARK   63  A    between atoms: C1'_159  and  N1_160
REMARK   64  A    between atoms: P_168  and  O5'_171
REMARK   65  A    between atoms: O5'_171  and  C5'_172
REMARK   66  A    between atoms: C5'_172  and  C4'_173
REMARK   67  A    between atoms: C3'_175  and  O3'_176
REMARK   68  A    between atoms: O3'_176  and  P_190
REMARK   69  A    between atoms: C2'_177  and  O2'_178
REMARK   70  A    between atoms: C1'_179  and  N9_180
REMARK   71  A    between atoms: P_190  and  OP1_191
REMARK   72  A    between atoms: P_190  and  O5'_193
REMARK   73  A    between atoms: O5'_193  and  C5'_194
REMARK   74  A    between atoms: C5'_194  and  C4'_195
REMARK   75  A    between atoms: C3'_197  and  O3'_198
REMARK   76  A    between atoms: O3'_198  and  P_210
REMARK   77  A    between atoms: C2'_199  and  O2'_200
REMARK   78  A    between atoms: C1'_201  and  N1_202
REMARK   79  A    between atoms: P_210  and  OP1_211
REMARK   80  A    between atoms: P_210  and  O5'_213
REMARK   81  A    between atoms: O5'_213  and  C5'_214
REMARK   82  A    between atoms: C5'_214  and  C4'_215
REMARK   83  A    between atoms: C3'_217  and  O3'_218
REMARK   84  A    between atoms: O3'_218  and  P_230
REMARK   85  A    between atoms: C2'_219  and  O2'_220
REMARK   86  A    between atoms: C1'_221  and  N1_222
REMARK   87  A    between atoms: P_230  and  OP1_231
REMARK   88  A    between atoms: P_230  and  O5'_233
REMARK   89  A    between atoms: O5'_233  and  C5'_234
REMARK   90  A    between atoms: C5'_234  and  C4'_235
REMARK   91  A    between atoms: C3'_237  and  O3'_238
REMARK   92  A    between atoms: O3'_238  and  P_250
REMARK   93  A    between atoms: C2'_239  and  O2'_240
REMARK   94  A    between atoms: C1'_241  and  N1_242
REMARK   95  A    between atoms: P_250  and  OP1_251
REMARK   96  A    between atoms: P_250  and  O5'_253
REMARK   97  A    between atoms: O5'_253  and  C5'_254
REMARK   98  A    between atoms: C5'_254  and  C4'_255
REMARK   99  A    between atoms: C3'_257  and  O3'_258
REMARK  100  A    between atoms: O3'_258  and  P_270
REMARK  101  A    between atoms: C2'_259  and  O2'_260
REMARK  102  A    between atoms: C1'_261  and  N1_262
REMARK  103  A    between atoms: P_270  and  OP1_271
REMARK  104  A    between atoms: P_270  and  O5'_273
REMARK  105  A    between atoms: O5'_273  and  C5'_274
REMARK  106  A    between atoms: C5'_274  and  C4'_275
REMARK  107  A    between atoms: C3'_277  and  O3'_278
REMARK  108  A    between atoms: O3'_278  and  P_292
REMARK  109  A    between atoms: C2'_279  and  O2'_280
REMARK  110  A    between atoms: C1'_281  and  N9_282
REMARK  111  A    between atoms: C6_286  and  N6_287
REMARK  112  A    between atoms: P_292  and  OP2_294
REMARK  113  A    between atoms: P_292  and  O5'_295
REMARK  114  A    between atoms: O5'_295  and  C5'_296
REMARK  115  A    between atoms: C5'_296  and  C4'_297
REMARK  116  A    between atoms: C3'_299  and  O3'_300
REMARK  117  A    between atoms: O3'_300  and  P_312
REMARK  118  A    between atoms: C2'_301  and  O2'_302
REMARK  119  A    between atoms: C1'_303  and  N1_304
REMARK  120  A    between atoms: P_312  and  OP2_314
REMARK  121  A    between atoms: P_312  and  O5'_315
REMARK  122  A    between atoms: O5'_315  and  C5'_316
REMARK  123  A    between atoms: C5'_316  and  C4'_317
REMARK  124  A    between atoms: C3'_319  and  O3'_320
REMARK  125  A    between atoms: O3'_320  and  P_332
REMARK  126  A    between atoms: C2'_321  and  O2'_322
REMARK  127  A    between atoms: C1'_323  and  N1_324
REMARK  128  A    between atoms: P_332  and  OP2_334
REMARK  129  A    between atoms: P_332  and  O5'_335
REMARK  130  A    between atoms: O5'_335  and  C5'_336
REMARK  131  A    between atoms: C5'_336  and  C4'_337
REMARK  132  A    between atoms: C3'_339  and  O3'_340
REMARK  133  A    between atoms: O3'_340  and  P_352
REMARK  134  A    between atoms: C2'_341  and  O2'_342
REMARK  135  A    between atoms: C1'_343  and  N1_344
REMARK  136  A    between atoms: P_352  and  OP1_353
REMARK  137  A    between atoms: P_352  and  O5'_355
REMARK  138  A    between atoms: O5'_355  and  C5'_356
REMARK  139  A    between atoms: C5'_356  and  C4'_357
REMARK  140  A    between atoms: C3'_359  and  O3'_360
REMARK  141  A    between atoms: O3'_360  and  P_375
REMARK  142  A    between atoms: C2'_361  and  O2'_362
REMARK  143  A    between atoms: C1'_363  and  N9_364
REMARK  144  A    between atoms: P_375  and  OP1_376
REMARK  145  A    between atoms: P_375  and  O5'_378
REMARK  146  A    between atoms: O5'_378  and  C5'_379
REMARK  147  A    between atoms: C5'_379  and  C4'_380
REMARK  148  A    between atoms: C3'_382  and  O3'_383
REMARK  149  A    between atoms: O3'_383  and  P_397
REMARK  150  A    between atoms: C2'_384  and  O2'_385
REMARK  151  A    between atoms: C1'_386  and  N9_387
REMARK  152  A    between atoms: C6_391  and  N6_392
REMARK  153  A    between atoms: P_397  and  OP1_398
REMARK  154  A    between atoms: P_397  and  O5'_400
REMARK  155  A    between atoms: O5'_400  and  C5'_401
REMARK  156  A    between atoms: C5'_401  and  C4'_402
REMARK  157  A    between atoms: C3'_404  and  O3'_405
REMARK  158  A    between atoms: O3'_405  and  P_419
REMARK  159  A    between atoms: C2'_406  and  O2'_407
REMARK  160  A    between atoms: C1'_408  and  N9_409
REMARK  161  A    between atoms: C6_413  and  N6_414
REMARK  162  A    between atoms: P_419  and  OP1_420
REMARK  163  A    between atoms: P_419  and  O5'_422
REMARK  164  A    between atoms: O5'_422  and  C5'_423
REMARK  165  A    between atoms: C5'_423  and  C4'_424
REMARK  166  A    between atoms: C3'_426  and  O3'_427
REMARK  167  A    between atoms: O3'_427  and  P_441
REMARK  168  A    between atoms: C2'_428  and  O2'_429
REMARK  169  A    between atoms: C1'_430  and  N9_431
REMARK  170  A    between atoms: C6_435  and  N6_436
REMARK  171  A    between atoms: P_441  and  OP1_442
REMARK  172  A    between atoms: P_441  and  O5'_444
REMARK  173  A    between atoms: O5'_444  and  C5'_445
REMARK  174  A    between atoms: C5'_445  and  C4'_446
REMARK  175  A    between atoms: C3'_448  and  O3'_449
REMARK  176  A    between atoms: O3'_449  and  P_461
REMARK  177  A    between atoms: C2'_450  and  O2'_451
REMARK  178  A    between atoms: C1'_452  and  N1_453
REMARK  179  A    between atoms: P_461  and  OP1_462
REMARK  180  A    between atoms: P_461  and  O5'_464
REMARK  181  A    between atoms: O5'_464  and  C5'_465
REMARK  182  A    between atoms: C5'_465  and  C4'_466
REMARK  183  A    between atoms: C3'_468  and  O3'_469
REMARK  184  A    between atoms: O3'_469  and  P_481
REMARK  185  A    between atoms: C2'_470  and  O2'_471
REMARK  186  A    between atoms: C1'_472  and  N1_473
REMARK  187  A    between atoms: P_481  and  OP2_483
REMARK  188  A    between atoms: P_481  and  O5'_484
REMARK  189  A    between atoms: O5'_484  and  C5'_485
REMARK  190  A    between atoms: C5'_485  and  C4'_486
REMARK  191  A    between atoms: C3'_488  and  O3'_489
REMARK  192  A    between atoms: O3'_489  and  P_501
REMARK  193  A    between atoms: C2'_490  and  O2'_491
REMARK  194  A    between atoms: C1'_492  and  N1_493
REMARK  195  A    between atoms: P_501  and  OP2_503
REMARK  196  A    between atoms: P_501  and  O5'_504
REMARK  197  A    between atoms: O5'_504  and  C5'_505
REMARK  198  A    between atoms: C5'_505  and  C4'_506
REMARK  199  A    between atoms: C3'_508  and  O3'_509
REMARK  200  A    between atoms: O3'_509  and  P_521
REMARK  201  A    between atoms: C2'_510  and  O2'_511
REMARK  202  A    between atoms: C1'_512  and  N1_513
REMARK  203  A    between atoms: P_521  and  OP1_522
REMARK  204  A    between atoms: P_521  and  O5'_524
REMARK  205  A    between atoms: O5'_524  and  C5'_525
REMARK  206  A    between atoms: C5'_525  and  C4'_526
REMARK  207  A    between atoms: C3'_528  and  O3'_529
REMARK  208  A    between atoms: O3'_529  and  P_541
REMARK  209  A    between atoms: C2'_530  and  O2'_531
REMARK  210  A    between atoms: C1'_532  and  N1_533
REMARK  211  A    between atoms: P_541  and  OP1_542
REMARK  212  A    between atoms: P_541  and  O5'_544
REMARK  213  A    between atoms: O5'_544  and  C5'_545
REMARK  214  A    between atoms: C5'_545  and  C4'_546
REMARK  215  A    between atoms: C3'_548  and  O3'_549
REMARK  216  A    between atoms: O3'_549  and  P_561
REMARK  217  A    between atoms: C2'_550  and  O2'_551
REMARK  218  A    between atoms: C1'_552  and  N1_553
REMARK  219  A    between atoms: P_561  and  OP1_562
REMARK  220  A    between atoms: P_561  and  O5'_564
REMARK  221  A    between atoms: O5'_564  and  C5'_565
REMARK  222  A    between atoms: C5'_565  and  C4'_566
REMARK  223  A    between atoms: C3'_568  and  O3'_569
REMARK  224  A    between atoms: O3'_569  and  P_581
REMARK  225  A    between atoms: C2'_570  and  O2'_571
REMARK  226  A    between atoms: C1'_572  and  N1_573
REMARK  227  A    between atoms: P_581  and  OP1_582
REMARK  228  A    between atoms: P_581  and  O5'_584
REMARK  229  A    between atoms: O5'_584  and  C5'_585
REMARK  230  A    between atoms: C5'_585  and  C4'_586
REMARK  231  A    between atoms: C3'_588  and  O3'_589
REMARK  232  A    between atoms: O3'_589  and  P_603
REMARK  233  A    between atoms: C2'_590  and  O2'_591
REMARK  234  A    between atoms: C1'_592  and  N9_593
REMARK  235  A    between atoms: C6_597  and  N6_598
REMARK  236  A    between atoms: P_603  and  OP1_604
REMARK  237  A    between atoms: P_603  and  O5'_606
REMARK  238  A    between atoms: O5'_606  and  C5'_607
REMARK  239  A    between atoms: C5'_607  and  C4'_608
REMARK  240  A    between atoms: C3'_610  and  O3'_611
REMARK  241  A    between atoms: O3'_611  and  P_625
REMARK  242  A    between atoms: C2'_612  and  O2'_613
REMARK  243  A    between atoms: C1'_614  and  N9_615
REMARK  244  A    between atoms: C6_619  and  N6_620
REMARK  245  A    between atoms: P_625  and  OP1_626
REMARK  246  A    between atoms: P_625  and  O5'_628
REMARK  247  A    between atoms: O5'_628  and  C5'_629
REMARK  248  A    between atoms: C5'_629  and  C4'_630
REMARK  249  A    between atoms: C3'_632  and  O3'_633
REMARK  250  A    between atoms: O3'_633  and  P_647
REMARK  251  A    between atoms: C2'_634  and  O2'_635
REMARK  252  A    between atoms: C1'_636  and  N9_637
REMARK  253  A    between atoms: C6_641  and  N6_642
REMARK  254  A    between atoms: P_647  and  OP2_649
REMARK  255  A    between atoms: P_647  and  O5'_650
REMARK  256  A    between atoms: O5'_650  and  C5'_651
REMARK  257  A    between atoms: C5'_651  and  C4'_652
REMARK  258  A    between atoms: C3'_654  and  O3'_655
REMARK  259  A    between atoms: O3'_655  and  P_669
REMARK  260  A    between atoms: C2'_656  and  O2'_657
REMARK  261  A    between atoms: C1'_658  and  N9_659
REMARK  262  A    between atoms: P_669  and  OP2_671
REMARK  263  A    between atoms: P_669  and  O5'_672
REMARK  264  A    between atoms: O5'_672  and  C5'_673
REMARK  265  A    between atoms: C5'_673  and  C4'_674
REMARK  266  A    between atoms: C3'_676  and  O3'_677
REMARK  267  A    between atoms: O3'_677  and  P_689
REMARK  268  A    between atoms: C2'_678  and  O2'_679
REMARK  269  A    between atoms: C1'_680  and  N1_681
REMARK  270  A    between atoms: P_689  and  OP2_691
REMARK  271  A    between atoms: P_689  and  O5'_692
REMARK  272  A    between atoms: O5'_692  and  C5'_693
REMARK  273  A    between atoms: C5'_693  and  C4'_694
REMARK  274  A    between atoms: C3'_696  and  O3'_697
REMARK  275  A    between atoms: O3'_697  and  P_711
REMARK  276  A    between atoms: C2'_698  and  O2'_699
REMARK  277  A    between atoms: C1'_700  and  N9_701
REMARK  278  A    between atoms: P_711  and  OP2_713
REMARK  279  A    between atoms: P_711  and  O5'_714
REMARK  280  A    between atoms: O5'_714  and  C5'_715
REMARK  281  A    between atoms: C5'_715  and  C4'_716
REMARK  282  A    between atoms: C3'_718  and  O3'_719
REMARK  283  A    between atoms: O3'_719  and  P_733
REMARK  284  A    between atoms: C2'_720  and  O2'_721
REMARK  285  A    between atoms: C1'_722  and  N9_723
REMARK  286  A    between atoms: P_733  and  OP1_734
REMARK  287  A    between atoms: P_733  and  O5'_736
REMARK  288  A    between atoms: O5'_736  and  C5'_737
REMARK  289  A    between atoms: C5'_737  and  C4'_738
REMARK  290  A    between atoms: C3'_740  and  O3'_741
REMARK  291  A    between atoms: O3'_741  and  P_753
REMARK  292  A    between atoms: C2'_742  and  O2'_743
REMARK  293  A    between atoms: C1'_744  and  N1_745
REMARK  294  A    between atoms: P_753  and  OP1_754
REMARK  295  A    between atoms: P_753  and  O5'_756
REMARK  296  A    between atoms: O5'_756  and  C5'_757
REMARK  297  A    between atoms: C5'_757  and  C4'_758
REMARK  298  A    between atoms: C3'_760  and  O3'_761
REMARK  299  A    between atoms: O3'_761  and  P_775
REMARK  300  A    between atoms: C2'_762  and  O2'_763
REMARK  301  A    between atoms: C1'_764  and  N9_765
REMARK  302  A    between atoms: C6_769  and  N6_770
REMARK  303  A    between atoms: P_775  and  OP1_776
REMARK  304  A    between atoms: P_775  and  O5'_778
REMARK  305  A    between atoms: O5'_778  and  C5'_779
REMARK  306  A    between atoms: C5'_779  and  C4'_780
REMARK  307  A    between atoms: C3'_782  and  O3'_783
REMARK  308  A    between atoms: O3'_783  and  P_795
REMARK  309  A    between atoms: C2'_784  and  O2'_785
REMARK  310  A    between atoms: C1'_786  and  N1_787
REMARK  311  A    between atoms: P_795  and  OP2_797
REMARK  312  A    between atoms: P_795  and  O5'_798
REMARK  313  A    between atoms: O5'_798  and  C5'_799
REMARK  314  A    between atoms: C5'_799  and  C4'_800
REMARK  315  A    between atoms: C3'_802  and  O3'_803
REMARK  316  A    between atoms: O3'_803  and  P_815
REMARK  317  A    between atoms: C2'_804  and  O2'_805
REMARK  318  A    between atoms: C1'_806  and  N1_807
REMARK  319  A    between atoms: P_815  and  OP2_817
REMARK  320  A    between atoms: P_815  and  O5'_818
REMARK  321  A    between atoms: O5'_818  and  C5'_819
REMARK  322  A    between atoms: C5'_819  and  C4'_820
REMARK  323  A    between atoms: C3'_822  and  O3'_823
REMARK  324  A    between atoms: O3'_823  and  P_835
REMARK  325  A    between atoms: C2'_824  and  O2'_825
REMARK  326  A    between atoms: C1'_826  and  N1_827
REMARK  327  A    between atoms: P_835  and  OP2_837
REMARK  328  A    between atoms: P_835  and  O5'_838
REMARK  329  A    between atoms: O5'_838  and  C5'_839
REMARK  330  A    between atoms: C5'_839  and  C4'_840
REMARK  331  A    between atoms: C3'_842  and  O3'_843
REMARK  332  A    between atoms: O3'_843  and  P_855
REMARK  333  A    between atoms: C2'_844  and  O2'_845
REMARK  334  A    between atoms: C1'_846  and  N1_847
REMARK  335  A    between atoms: P_855  and  OP2_857
REMARK  336  A    between atoms: P_855  and  O5'_858
REMARK  337  A    between atoms: O5'_858  and  C5'_859
REMARK  338  A    between atoms: C5'_859  and  C4'_860
REMARK  339  A    between atoms: C3'_862  and  O3'_863
REMARK  340  A    between atoms: O3'_863  and  P_875
REMARK  341  A    between atoms: C2'_864  and  O2'_865
REMARK  342  A    between atoms: C1'_866  and  N1_867
REMARK  343  A    between atoms: P_875  and  OP2_877
REMARK  344  A    between atoms: P_875  and  O5'_878
REMARK  345  A    between atoms: O5'_878  and  C5'_879
REMARK  346  A    between atoms: C5'_879  and  C4'_880
REMARK  347  A    between atoms: C3'_882  and  O3'_883
REMARK  348  A    between atoms: O3'_883  and  P_897
REMARK  349  A    between atoms: C2'_884  and  O2'_885
REMARK  350  A    between atoms: C1'_886  and  N9_887
REMARK  351  A    between atoms: P_897  and  OP2_899
REMARK  352  A    between atoms: P_897  and  O5'_900
REMARK  353  A    between atoms: O5'_900  and  C5'_901
REMARK  354  A    between atoms: C5'_901  and  C4'_902
REMARK  355  A    between atoms: C3'_904  and  O3'_905
REMARK  356  A    between atoms: O3'_905  and  P_917
REMARK  357  A    between atoms: C2'_906  and  O2'_907
REMARK  358  A    between atoms: C1'_908  and  N1_909
REMARK  359  A    between atoms: P_917  and  OP1_918
REMARK  360  A    between atoms: P_917  and  O5'_920
REMARK  361  A    between atoms: O5'_920  and  C5'_921
REMARK  362  A    between atoms: C5'_921  and  C4'_922
REMARK  363  A    between atoms: C3'_924  and  O3'_925
REMARK  364  A    between atoms: O3'_925  and  P_937
REMARK  365  A    between atoms: C2'_926  and  O2'_927
REMARK  366  A    between atoms: C1'_928  and  N1_929
REMARK  367  A    between atoms: P_937  and  OP1_938
REMARK  368  A    between atoms: P_937  and  O5'_940
REMARK  369  A    between atoms: O5'_940  and  C5'_941
REMARK  370  A    between atoms: C5'_941  and  C4'_942
REMARK  371  A    between atoms: C3'_944  and  O3'_945
REMARK  372  A    between atoms: O3'_945  and  P_957
REMARK  373  A    between atoms: C2'_946  and  O2'_947
REMARK  374  A    between atoms: C1'_948  and  N1_949
REMARK  375  A    between atoms: P_957  and  OP2_959
REMARK  376  A    between atoms: P_957  and  O5'_960
REMARK  377  A    between atoms: O5'_960  and  C5'_961
REMARK  378  A    between atoms: C5'_961  and  C4'_962
REMARK  379  A    between atoms: C3'_964  and  O3'_965
REMARK  380  A    between atoms: O3'_965  and  P_977
REMARK  381  A    between atoms: C2'_966  and  O2'_967
REMARK  382  A    between atoms: C1'_968  and  N1_969
REMARK  383  A    between atoms: P_977  and  OP2_979
REMARK  384  A    between atoms: P_977  and  O5'_980
REMARK  385  A    between atoms: O5'_980  and  C5'_981
REMARK  386  A    between atoms: C5'_981  and  C4'_982
REMARK  387  A    between atoms: C3'_984  and  O3'_985
REMARK  388  A    between atoms: O3'_985  and  P_999
REMARK  389  A    between atoms: C2'_986  and  O2'_987
REMARK  390  A    between atoms: C1'_988  and  N9_989
REMARK  391  A    between atoms: P_999  and  OP2_1001
REMARK  392  A    between atoms: P_999  and  O5'_1002
REMARK  393  A    between atoms: O5'_1002  and  C5'_1003
REMARK  394  A    between atoms: C5'_1003  and  C4'_1004
REMARK  395  A    between atoms: C3'_1006  and  O3'_1007
REMARK  396  A    between atoms: O3'_1007  and  P_1019
REMARK  397  A    between atoms: C2'_1008  and  O2'_1009
REMARK  398  A    between atoms: C1'_1010  and  N1_1011
REMARK  399  A    between atoms: P_1019  and  OP2_1021
REMARK  400  A    between atoms: P_1019  and  O5'_1022
REMARK  401  A    between atoms: O5'_1022  and  C5'_1023
REMARK  402  A    between atoms: C5'_1023  and  C4'_1024
REMARK  403  A    between atoms: C3'_1026  and  O3'_1027
REMARK  404  A    between atoms: O3'_1027  and  P_1039
REMARK  405  A    between atoms: C2'_1028  and  O2'_1029
REMARK  406  A    between atoms: C1'_1030  and  N1_1031
REMARK  407  A    between atoms: P_1039  and  OP2_1041
REMARK  408  A    between atoms: P_1039  and  O5'_1042
REMARK  409  A    between atoms: O5'_1042  and  C5'_1043
REMARK  410  A    between atoms: C5'_1043  and  C4'_1044
REMARK  411  A    between atoms: C3'_1046  and  O3'_1047
REMARK  412  A    between atoms: O3'_1047  and  P_1059
REMARK  413  A    between atoms: C2'_1048  and  O2'_1049
REMARK  414  A    between atoms: C1'_1050  and  N1_1051
REMARK  415  A    between atoms: P_1059  and  OP2_1061
REMARK  416  A    between atoms: P_1059  and  O5'_1062
REMARK  417  A    between atoms: O5'_1062  and  C5'_1063
REMARK  418  A    between atoms: C5'_1063  and  C4'_1064
REMARK  419  A    between atoms: C3'_1066  and  O3'_1067
REMARK  420  A    between atoms: O3'_1067  and  P_1079
REMARK  421  A    between atoms: C2'_1068  and  O2'_1069
REMARK  422  A    between atoms: C1'_1070  and  N1_1071
REMARK  423  A    between atoms: P_1079  and  OP2_1081
REMARK  424  A    between atoms: P_1079  and  O5'_1082
REMARK  425  A    between atoms: O5'_1082  and  C5'_1083
REMARK  426  A    between atoms: C5'_1083  and  C4'_1084
REMARK  427  A    between atoms: C3'_1086  and  O3'_1087
REMARK  428  A    between atoms: O3'_1087  and  P_1101
REMARK  429  A    between atoms: C2'_1088  and  O2'_1089
REMARK  430  A    between atoms: C1'_1090  and  N9_1091
REMARK  431  A    between atoms: C6_1095  and  N6_1096
REMARK  432  A    between atoms: P_1101  and  OP1_1102
REMARK  433  A    between atoms: P_1101  and  O5'_1104
REMARK  434  A    between atoms: O5'_1104  and  C5'_1105
REMARK  435  A    between atoms: C5'_1105  and  C4'_1106
REMARK  436  A    between atoms: C3'_1108  and  O3'_1109
REMARK  437  A    between atoms: O3'_1109  and  P_1123
REMARK  438  A    between atoms: C2'_1110  and  O2'_1111
REMARK  439  A    between atoms: C1'_1112  and  N9_1113
REMARK  440  A    between atoms: C6_1117  and  N6_1118
REMARK  441  A    between atoms: P_1123  and  OP1_1124
REMARK  442  A    between atoms: P_1123  and  O5'_1126
REMARK  443  A    between atoms: O5'_1126  and  C5'_1127
REMARK  444  A    between atoms: C5'_1127  and  C4'_1128
REMARK  445  A    between atoms: C3'_1130  and  O3'_1131
REMARK  446  A    between atoms: O3'_1131  and  P_1145
REMARK  447  A    between atoms: C2'_1132  and  O2'_1133
REMARK  448  A    between atoms: C1'_1134  and  N9_1135
REMARK  449  A    between atoms: C6_1139  and  N6_1140
REMARK  450  A    between atoms: P_1145  and  OP1_1146
REMARK  451  A    between atoms: P_1145  and  O5'_1148
REMARK  452  A    between atoms: O5'_1148  and  C5'_1149
REMARK  453  A    between atoms: C5'_1149  and  C4'_1150
REMARK  454  A    between atoms: C3'_1152  and  O3'_1153
REMARK  455  A    between atoms: O3'_1153  and  P_1167
REMARK  456  A    between atoms: C2'_1154  and  O2'_1155
REMARK  457  A    between atoms: C1'_1156  and  N9_1157
REMARK  458  A    between atoms: C6_1161  and  N6_1162
REMARK  459  A    between atoms: P_1167  and  OP1_1168
REMARK  460  A    between atoms: P_1167  and  O5'_1170
REMARK  461  A    between atoms: O5'_1170  and  C5'_1171
REMARK  462  A    between atoms: C5'_1171  and  C4'_1172
REMARK  463  A    between atoms: C3'_1174  and  O3'_1175
REMARK  464  A    between atoms: O3'_1175  and  P_1189
REMARK  465  A    between atoms: C2'_1176  and  O2'_1177
REMARK  466  A    between atoms: C1'_1178  and  N9_1179
REMARK  467  A    between atoms: C6_1183  and  N6_1184
REMARK  468  A    between atoms: P_1189  and  OP2_1191
REMARK  469  A    between atoms: P_1189  and  O5'_1192
REMARK  470  A    between atoms: O5'_1192  and  C5'_1193
REMARK  471  A    between atoms: C5'_1193  and  C4'_1194
REMARK  472  A    between atoms: C3'_1196  and  O3'_1197
REMARK  473  A    between atoms: O3'_1197  and  P_1209
REMARK  474  A    between atoms: C2'_1198  and  O2'_1199
REMARK  475  A    between atoms: C1'_1200  and  N1_1201
REMARK  476  A    between atoms: P_1209  and  OP2_1211
REMARK  477  A    between atoms: P_1209  and  O5'_1212
REMARK  478  A    between atoms: O5'_1212  and  C5'_1213
REMARK  479  A    between atoms: C5'_1213  and  C4'_1214
REMARK  480  A    between atoms: C3'_1216  and  O3'_1217
REMARK  481  A    between atoms: O3'_1217  and  P_1231
REMARK  482  A    between atoms: C2'_1218  and  O2'_1219
REMARK  483  A    between atoms: C1'_1220  and  N9_1221
REMARK  484  A    between atoms: P_1231  and  OP2_1233
REMARK  485  A    between atoms: P_1231  and  O5'_1234
REMARK  486  A    between atoms: O5'_1234  and  C5'_1235
REMARK  487  A    between atoms: C5'_1235  and  C4'_1236
REMARK  488  A    between atoms: C3'_1238  and  O3'_1239
REMARK  489  A    between atoms: O3'_1239  and  P_1254
REMARK  490  A    between atoms: C2'_1240  and  O2'_1241
REMARK  491  A    between atoms: C1'_1242  and  N9_1243
REMARK  492  A    between atoms: P_1254  and  OP2_1256
REMARK  493  A    between atoms: P_1254  and  O5'_1257
REMARK  494  A    between atoms: O5'_1257  and  C5'_1258
REMARK  495  A    between atoms: C5'_1258  and  C4'_1259
REMARK  496  A    between atoms: C3'_1261  and  O3'_1262
REMARK  497  A    between atoms: O3'_1262  and  P_1276
REMARK  498  A    between atoms: C2'_1263  and  O2'_1264
REMARK  499  A    between atoms: C1'_1265  and  N9_1266
REMARK  500  A    between atoms: P_1276  and  OP2_1278
REMARK  501  A    between atoms: P_1276  and  O5'_1279
REMARK  502  A    between atoms: O5'_1279  and  C5'_1280
REMARK  503  A    between atoms: C5'_1280  and  C4'_1281
REMARK  504  A    between atoms: C3'_1283  and  O3'_1284
REMARK  505  A    between atoms: O3'_1284  and  P_1296
REMARK  506  A    between atoms: C2'_1285  and  O2'_1286
REMARK  507  A    between atoms: C1'_1287  and  N1_1288
REMARK  508  A    between atoms: P_1296  and  OP1_1297
REMARK  509  A    between atoms: P_1296  and  O5'_1299
REMARK  510  A    between atoms: O5'_1299  and  C5'_1300
REMARK  511  A    between atoms: C5'_1300  and  C4'_1301
REMARK  512  A    between atoms: C3'_1303  and  O3'_1304
REMARK  513  A    between atoms: O3'_1304  and  P_1316
REMARK  514  A    between atoms: C2'_1305  and  O2'_1306
REMARK  515  A    between atoms: C1'_1307  and  N1_1308
REMARK  516  A    between atoms: P_1316  and  OP1_1317
REMARK  517  A    between atoms: P_1316  and  O5'_1319
REMARK  518  A    between atoms: O5'_1319  and  C5'_1320
REMARK  519  A    between atoms: C5'_1320  and  C4'_1321
REMARK  520  A    between atoms: C3'_1323  and  O3'_1324
REMARK  521  A    between atoms: O3'_1324  and  P_1338
REMARK  522  A    between atoms: C2'_1325  and  O2'_1326
REMARK  523  A    between atoms: C1'_1327  and  N9_1328
REMARK  524  A    between atoms: C6_1332  and  N6_1333
REMARK  525  A    between atoms: P_1338  and  OP1_1339
REMARK  526  A    between atoms: P_1338  and  O5'_1341
REMARK  527  A    between atoms: O5'_1341  and  C5'_1342
REMARK  528  A    between atoms: C5'_1342  and  C4'_1343
REMARK  529  A    between atoms: C3'_1345  and  O3'_1346
REMARK  530  A    between atoms: O3'_1346  and  P_1358
REMARK  531  A    between atoms: C2'_1347  and  O2'_1348
REMARK  532  A    between atoms: C1'_1349  and  N1_1350
REMARK  533  A    between atoms: P_1358  and  OP1_1359
REMARK  534  A    between atoms: P_1358  and  O5'_1361
REMARK  535  A    between atoms: O5'_1361  and  C5'_1362
REMARK  536  A    between atoms: C5'_1362  and  C4'_1363
REMARK  537  A    between atoms: C3'_1365  and  O3'_1366
REMARK  538  A    between atoms: O3'_1366  and  P_1380
REMARK  539  A    between atoms: C2'_1367  and  O2'_1368
REMARK  540  A    between atoms: C1'_1369  and  N9_1370
REMARK  541  A    between atoms: C6_1374  and  N6_1375
REMARK  542  A    between atoms: P_1380  and  OP1_1381
REMARK  543  A    between atoms: P_1380  and  O5'_1383
REMARK  544  A    between atoms: O5'_1383  and  C5'_1384
REMARK  545  A    between atoms: C5'_1384  and  C4'_1385
REMARK  546  A    between atoms: C3'_1387  and  O3'_1388
REMARK  547  A    between atoms: O3'_1388  and  P_1402
REMARK  548  A    between atoms: C2'_1389  and  O2'_1390
REMARK  549  A    between atoms: C1'_1391  and  N9_1392
REMARK  550  A    between atoms: C6_1396  and  N6_1397
REMARK  551  A    between atoms: P_1402  and  OP1_1403
REMARK  552  A    between atoms: P_1402  and  O5'_1405
REMARK  553  A    between atoms: O5'_1405  and  C5'_1406
REMARK  554  A    between atoms: C5'_1406  and  C4'_1407
REMARK  555  A    between atoms: C3'_1409  and  O3'_1410
REMARK  556  A    between atoms: O3'_1410  and  P_1424
REMARK  557  A    between atoms: C2'_1411  and  O2'_1412
REMARK  558  A    between atoms: C1'_1413  and  N9_1414
REMARK  559  A    between atoms: P_1424  and  OP1_1425
REMARK  560  A    between atoms: P_1424  and  O5'_1427
REMARK  561  A    between atoms: O5'_1427  and  C5'_1428
REMARK  562  A    between atoms: C5'_1428  and  C4'_1429
REMARK  563  A    between atoms: C3'_1431  and  O3'_1432
REMARK  564  A    between atoms: O3'_1432  and  P_1446
REMARK  565  A    between atoms: C2'_1433  and  O2'_1434
REMARK  566  A    between atoms: C1'_1435  and  N9_1436
REMARK  567  A    between atoms: P_1446  and  OP1_1447
REMARK  568  A    between atoms: P_1446  and  O5'_1449
REMARK  569  A    between atoms: O5'_1449  and  C5'_1450
REMARK  570  A    between atoms: C5'_1450  and  C4'_1451
REMARK  571  A    between atoms: C3'_1453  and  O3'_1454
REMARK  572  A    between atoms: O3'_1454  and  P_1468
REMARK  573  A    between atoms: C2'_1455  and  O2'_1456
REMARK  574  A    between atoms: C1'_1457  and  N9_1458
REMARK  575  A    between atoms: C6_1462  and  N6_1463
REMARK  576  A    between atoms: P_1468  and  OP1_1469
REMARK  577  A    between atoms: P_1468  and  O5'_1471
REMARK  578  A    between atoms: O5'_1471  and  C5'_1472
REMARK  579  A    between atoms: C5'_1472  and  C4'_1473
REMARK  580  A    between atoms: C3'_1475  and  O3'_1476
REMARK  581  A    between atoms: O3'_1476  and  P_1488
REMARK  582  A    between atoms: C2'_1477  and  O2'_1478
REMARK  583  A    between atoms: C1'_1479  and  N1_1480
REMARK  584  A    between atoms: P_1488  and  OP1_1489
REMARK  585  A    between atoms: P_1488  and  O5'_1491
REMARK  586  A    between atoms: O5'_1491  and  C5'_1492
REMARK  587  A    between atoms: C5'_1492  and  C4'_1493
REMARK  588  A    between atoms: C3'_1495  and  O3'_1496
REMARK  589  A    between atoms: O3'_1496  and  P_1508
REMARK  590  A    between atoms: C2'_1497  and  O2'_1498
REMARK  591  A    between atoms: C1'_1499  and  N1_1500
REMARK  592  A    between atoms: P_1508  and  OP1_1509
REMARK  593  A    between atoms: P_1508  and  O5'_1511
REMARK  594  A    between atoms: O5'_1511  and  C5'_1512
REMARK  595  A    between atoms: C5'_1512  and  C4'_1513
REMARK  596  A    between atoms: C3'_1515  and  O3'_1516
REMARK  597  A    between atoms: O3'_1516  and  P_1528
REMARK  598  A    between atoms: C2'_1517  and  O2'_1518
REMARK  599  A    between atoms: C1'_1519  and  N1_1520
REMARK  600  A    between atoms: P_1528  and  OP1_1529
REMARK  601  A    between atoms: P_1528  and  O5'_1531
REMARK  602  A    between atoms: O5'_1531  and  C5'_1532
REMARK  603  A    between atoms: C5'_1532  and  C4'_1533
REMARK  604  A    between atoms: C3'_1535  and  O3'_1536
REMARK  605  A    between atoms: O3'_1536  and  P_1548
REMARK  606  A    between atoms: C2'_1537  and  O2'_1538
REMARK  607  A    between atoms: C1'_1539  and  N1_1540
REMARK  608  A    between atoms: P_1548  and  OP2_1550
REMARK  609  A    between atoms: P_1548  and  O5'_1551
REMARK  610  A    between atoms: O5'_1551  and  C5'_1552
REMARK  611  A    between atoms: C5'_1552  and  C4'_1553
REMARK  612  A    between atoms: C3'_1555  and  O3'_1556
REMARK  613  A    between atoms: O3'_1556  and  P_1568
REMARK  614  A    between atoms: C2'_1557  and  O2'_1558
REMARK  615  A    between atoms: C1'_1559  and  N1_1560
REMARK  616  A    between atoms: P_1568  and  OP2_1570
REMARK  617  A    between atoms: P_1568  and  O5'_1571
REMARK  618  A    between atoms: O5'_1571  and  C5'_1572
REMARK  619  A    between atoms: C5'_1572  and  C4'_1573
REMARK  620  A    between atoms: C3'_1575  and  O3'_1576
REMARK  621  A    between atoms: C2'_1577  and  O2'_1578
REMARK  622  A    between atoms: C1'_1579  and  N9_1580
REMARK  623  A    between atoms: C6_1584  and  N6_1585
REMARK                            x       y       z     vdW  Elec       q    Type
REMARK                         _______ _______ _______ _____ _____    ______ ____
ROOT
ATOM      1  P   U   B  39     -30.078  28.828  21.254  0.00  0.00    +0.000 P 
ATOM      2  OP1 U   B  39     -28.705  28.531  21.730  0.00  0.00    +0.000 OA
ENDROOT
BRANCH   1   3
ATOM      3  OP2 U   B  39     -31.221  28.649  22.168  0.00  0.00    +0.000 OA
ATOM      4  H   U   B  39     -32.042  28.884  21.708  0.00  0.00    +0.000 HD
ENDBRANCH   1   3
BRANCH   1   5
ATOM      5  O5' U   B  39     -30.084  30.340  20.746  0.00  0.00    +0.000 OA
BRANCH   5   6
ATOM      6  C5' U   B  39     -31.274  31.074  20.553  0.00  0.00    +0.000 C 
BRANCH   6   7
ATOM      7  C4' U   B  39     -31.122  32.528  20.927  0.00  0.00    +0.000 C 
ATOM      8  O4' U   B  39     -31.000  32.650  22.369  0.00  0.00    +0.000 OA
ATOM      9  C3' U   B  39     -29.908  33.242  20.392  0.00  0.00    +0.000 C 
ATOM     10  C2' U   B  39     -29.772  34.420  21.353  0.00  0.00    +0.000 C 
ATOM     11  C1' U   B  39     -30.197  33.774  22.678  0.00  0.00    +0.000 C 
BRANCH  11  12
ATOM     12  N1  U   B  39     -29.046  33.345  23.499  0.00  0.00    +0.000 N 
ATOM     13  C2  U   B  39     -28.432  34.306  24.285  0.00  0.00    +0.000 A 
ATOM     14  O2  U   B  39     -28.805  35.467  24.326  0.00  0.00    +0.000 OA
ATOM     15  N3  U   B  39     -27.363  33.863  25.021  0.00  0.00    +0.000 N 
ATOM     16  C4  U   B  39     -26.859  32.585  25.058  0.00  0.00    +0.000 A 
ATOM     17  O4  U   B  39     -25.892  32.342  25.774  0.00  0.00    +0.000 OA
ATOM     18  C5  U   B  39     -27.548  31.650  24.226  0.00  0.00    +0.000 A 
ATOM     19  C6  U   B  39     -28.595  32.053  23.491  0.00  0.00    +0.000 A 
ATOM     20  H   U   B  39     -26.908  34.532  25.583  0.00  0.00    +0.000 HD
ENDBRANCH  11  12
BRANCH  10  21
ATOM     21  O2' U   B  39     -30.657  35.466  21.034  0.00  0.00    +0.000 OA
ATOM     22  H   U   B  39     -31.566  35.129  21.024  0.00  0.00    +0.000 HD
ENDBRANCH  10  21
BRANCH   9  23
ATOM     23  O3' U   B  39     -30.051  33.651  19.040  0.00  0.00    +0.000 OA
BRANCH  23  24
ATOM     24  P   C   B  40     -28.870  33.431  18.000  0.00  0.00    +0.000 P 
ATOM     25  OP1 C   B  40     -29.265  34.073  16.724  0.00  0.00    +0.000 OA
BRANCH  24  26
ATOM     26  OP2 C   B  40     -28.522  31.987  18.019  0.00  0.00    +0.000 OA
ATOM     27  H   C   B  40     -27.801  31.820  17.392  0.00  0.00    +0.000 HD
ENDBRANCH  24  26
BRANCH  24  28
ATOM     28  O5' C   B  40     -27.639  34.238  18.596  0.00  0.00    +0.000 OA
BRANCH  28  29
ATOM     29  C5' C   B  40     -27.615  35.666  18.586  0.00  0.00    +0.000 C 
BRANCH  29  30
ATOM     30  C4' C   B  40     -26.242  36.186  18.923  0.00  0.00    +0.000 C 
ATOM     31  O4' C   B  40     -25.879  35.798  20.273  0.00  0.00    +0.000 OA
ATOM     32  C3' C   B  40     -25.113  35.647  18.072  0.00  0.00    +0.000 C 
ATOM     33  C2' C   B  40     -23.896  35.860  18.966  0.00  0.00    +0.000 C 
ATOM     34  C1' C   B  40     -24.481  35.599  20.355  0.00  0.00    +0.000 C 
BRANCH  34  35
ATOM     35  N1  C   B  40     -24.221  34.236  20.859  0.00  0.00    +0.000 N 
ATOM     36  C2  C   B  40     -22.929  33.896  21.279  0.00  0.00    +0.000 A 
ATOM     37  O2  C   B  40     -22.028  34.741  21.203  0.00  0.00    +0.000 OA
ATOM     38  N3  C   B  40     -22.687  32.652  21.756  0.00  0.00    +0.000 NA
ATOM     39  C4  C   B  40     -23.673  31.762  21.828  0.00  0.00    +0.000 A 
ATOM     40  N4  C   B  40     -23.386  30.550  22.305  0.00  0.00    +0.000 N 
ATOM     41  C5  C   B  40     -24.995  32.077  21.415  0.00  0.00    +0.000 A 
ATOM     42  C6  C   B  40     -25.227  33.314  20.946  0.00  0.00    +0.000 A 
ATOM     43  H   C   B  40     -24.092  29.867  22.372  0.00  0.00    +0.000 HD
ATOM     44  H   C   B  40     -22.468  30.338  22.590  0.00  0.00    +0.000 HD
ENDBRANCH  34  35
BRANCH  33  45
ATOM     45  O2' C   B  40     -23.413  37.183  18.903  0.00  0.00    +0.000 OA
ATOM     46  H   C   B  40     -24.123  37.798  19.143  0.00  0.00    +0.000 HD
ENDBRANCH  33  45
BRANCH  32  47
ATOM     47  O3' C   B  40     -25.012  36.330  16.824  0.00  0.00    +0.000 OA
BRANCH  47  48
ATOM     48  P   U   B  41     -24.806  35.513  15.478  0.00  0.00    +0.000 P 
ATOM     49  OP1 U   B  41     -24.923  36.467  14.353  0.00  0.00    +0.000 OA
BRANCH  48  50
ATOM     50  OP2 U   B  41     -25.681  34.317  15.526  0.00  0.00    +0.000 OA
ATOM     51  H   U   B  41     -25.570  33.803  14.711  0.00  0.00    +0.000 HD
ENDBRANCH  48  50
BRANCH  48  52
ATOM     52  O5' U   B  41     -23.294  35.024  15.568  0.00  0.00    +0.000 OA
BRANCH  52  53
ATOM     53  C5' U   B  41     -22.220  35.958  15.557  0.00  0.00    +0.000 C 
BRANCH  53  54
ATOM     54  C4' U   B  41     -20.929  35.297  15.975  0.00  0.00    +0.000 C 
ATOM     55  O4' U   B  41     -21.036  34.831  17.350  0.00  0.00    +0.000 OA
ATOM     56  C3' U   B  41     -20.539  34.059  15.197  0.00  0.00    +0.000 C 
ATOM     57  C2' U   B  41     -19.611  33.339  16.171  0.00  0.00    +0.000 C 
ATOM     58  C1' U   B  41     -20.291  33.642  17.510  0.00  0.00    +0.000 C 
BRANCH  58  59
ATOM     59  N1  U   B  41     -21.203  32.565  17.945  0.00  0.00    +0.000 N 
ATOM     60  C2  U   B  41     -20.648  31.471  18.586  0.00  0.00    +0.000 A 
ATOM     61  O2  U   B  41     -19.453  31.366  18.797  0.00  0.00    +0.000 OA
ATOM     62  N3  U   B  41     -21.543  30.502  18.972  0.00  0.00    +0.000 N 
ATOM     63  C4  U   B  41     -22.908  30.516  18.789  0.00  0.00    +0.000 A 
ATOM     64  O4  U   B  41     -23.579  29.569  19.195  0.00  0.00    +0.000 OA
ATOM     65  C5  U   B  41     -23.406  31.678  18.121  0.00  0.00    +0.000 A 
ATOM     66  C6  U   B  41     -22.558  32.639  17.733  0.00  0.00    +0.000 A 
ATOM     67  H   U   B  41     -21.168  29.714  19.428  0.00  0.00    +0.000 HD
ENDBRANCH  58  59
BRANCH  57  68
ATOM     68  O2' U   B  41     -18.309  33.895  16.177  0.00  0.00    +0.000 OA
ATOM     69  H   U   B  41     -18.362  34.841  16.385  0.00  0.00    +0.000 HD
ENDBRANCH  57  68
BRANCH  56  70
ATOM     70  O3' U   B  41     -19.916  34.375  13.956  0.00  0.00    +0.000 OA
BRANCH  70  71
ATOM     71  P   U   B  42     -20.211  33.529  12.639  0.00  0.00    +0.000 P 
ATOM     72  OP1 U   B  42     -19.836  34.352  11.469  0.00  0.00    +0.000 OA
BRANCH  71  73
ATOM     73  OP2 U   B  42     -21.586  32.976  12.739  0.00  0.00    +0.000 OA
ATOM     74  H   U   B  42     -21.784  32.457  11.944  0.00  0.00    +0.000 HD
ENDBRANCH  71  73
BRANCH  71  75
ATOM     75  O5' U   B  42     -19.181  32.314  12.740  0.00  0.00    +0.000 OA
BRANCH  75  76
ATOM     76  C5' U   B  42     -17.777  32.527  12.635  0.00  0.00    +0.000 C 
BRANCH  76  77
ATOM     77  C4' U   B  42     -17.012  31.335  13.159  0.00  0.00    +0.000 C 
ATOM     78  O4' U   B  42     -17.369  31.099  14.549  0.00  0.00    +0.000 OA
ATOM     79  C3' U   B  42     -17.298  30.013  12.480  0.00  0.00    +0.000 C 
ATOM     80  C2' U   B  42     -16.890  29.004  13.546  0.00  0.00    +0.000 C 
ATOM     81  C1' U   B  42     -17.345  29.715  14.822  0.00  0.00    +0.000 C 
BRANCH  81  82
ATOM     82  N1  U   B  42     -18.693  29.294  15.258  0.00  0.00    +0.000 N 
ATOM     83  C2  U   B  42     -18.785  28.133  16.003  0.00  0.00    +0.000 A 
ATOM     84  O2  U   B  42     -17.815  27.460  16.307  0.00  0.00    +0.000 OA
ATOM     85  N3  U   B  42     -20.060  27.784  16.383  0.00  0.00    +0.000 N 
ATOM     86  C4  U   B  42     -21.226  28.465  16.099  0.00  0.00    +0.000 A 
ATOM     87  O4  U   B  42     -22.296  28.027  16.513  0.00  0.00    +0.000 OA
ATOM     88  C5  U   B  42     -21.046  29.655  15.323  0.00  0.00    +0.000 A 
ATOM     89  C6  U   B  42     -19.817  30.016  14.940  0.00  0.00    +0.000 A 
ATOM     90  H   U   B  42     -20.150  26.960  16.914  0.00  0.00    +0.000 HD
ENDBRANCH  81  82
BRANCH  80  91
ATOM     91  O2' U   B  42     -15.486  28.817  13.596  0.00  0.00    +0.000 OA
ATOM     92  H   U   B  42     -15.051  29.671  13.745  0.00  0.00    +0.000 HD
ENDBRANCH  80  91
BRANCH  79  93
ATOM     93  O3' U   B  42     -16.578  29.857  11.261  0.00  0.00    +0.000 OA
BRANCH  93  94
ATOM     94  P   A   B  43     -17.268  29.246   9.963  0.00  0.00    +0.000 P 
ATOM     95  OP1 A   B  43     -16.231  29.076   8.919  0.00  0.00    +0.000 OA
BRANCH  94  96
ATOM     96  OP2 A   B  43     -18.477  30.054   9.671  0.00  0.00    +0.000 OA
ATOM     97  H   A   B  43     -18.918  29.702   8.882  0.00  0.00    +0.000 HD
ENDBRANCH  94  96
BRANCH  94  98
ATOM     98  O5' A   B  43     -17.747  27.798  10.424  0.00  0.00    +0.000 OA
BRANCH  98  99
ATOM     99  C5' A   B  43     -16.811  26.788  10.783  0.00  0.00    +0.000 C 
BRANCH  99 100
ATOM    100  C4' A   B  43     -17.507  25.657  11.510  0.00  0.00    +0.000 C 
ATOM    101  O4' A   B  43     -18.176  26.177  12.693  0.00  0.00    +0.000 OA
ATOM    102  C3' A   B  43     -18.613  24.967  10.735  0.00  0.00    +0.000 C 
ATOM    103  C2' A   B  43     -19.480  24.393  11.847  0.00  0.00    +0.000 C 
ATOM    104  C1' A   B  43     -19.403  25.507  12.889  0.00  0.00    +0.000 C 
BRANCH 104 105
ATOM    105  N9  A   B  43     -20.496  26.482  12.743  0.00  0.00    +0.000 N 
ATOM    106  C8  A   B  43     -20.464  27.683  12.089  0.00  0.00    +0.000 A 
ATOM    107  N7  A   B  43     -21.600  28.337  12.129  0.00  0.00    +0.000 NA
ATOM    108  C5  A   B  43     -22.438  27.509  12.856  0.00  0.00    +0.000 A 
ATOM    109  C6  A   B  43     -23.781  27.633  13.252  0.00  0.00    +0.000 A 
ATOM    110  N6  A   B  43     -24.548  28.688  12.945  0.00  0.00    +0.000 N 
ATOM    111  N1  A   B  43     -24.319  26.631  13.969  0.00  0.00    +0.000 NA
ATOM    112  C2  A   B  43     -23.553  25.578  14.270  0.00  0.00    +0.000 A 
ATOM    113  N3  A   B  43     -22.275  25.349  13.956  0.00  0.00    +0.000 NA
ATOM    114  C4  A   B  43     -21.770  26.364  13.241  0.00  0.00    +0.000 A 
ATOM    115  H   A   B  43     -24.174  29.433  12.421  0.00  0.00    +0.000 HD
ATOM    116  H   A   B  43     -25.486  28.718  13.244  0.00  0.00    +0.000 HD
ENDBRANCH 104 105
BRANCH 103 117
ATOM    117  O2' A   B  43     -18.924  23.212  12.396  0.00  0.00    +0.000 OA
ATOM    118  H   A   B  43     -18.026  23.395  12.713  0.00  0.00    +0.000 HD
ENDBRANCH 103 117
BRANCH 102 119
ATOM    119  O3' A   B  43     -18.111  23.985   9.840  0.00  0.00    +0.000 OA
BRANCH 119 120
ATOM    120  P   C   B  44     -18.960  23.558   8.566  0.00  0.00    +0.000 P 
ATOM    121  OP1 C   B  44     -18.151  22.582   7.790  0.00  0.00    +0.000 OA
BRANCH 120 122
ATOM    122  OP2 C   B  44     -19.471  24.780   7.884  0.00  0.00    +0.000 OA
ATOM    123  H   C   B  44     -19.990  24.523   7.106  0.00  0.00    +0.000 HD
ENDBRANCH 120 122
BRANCH 120 124
ATOM    124  O5' C   B  44     -20.195  22.782   9.207  0.00  0.00    +0.000 OA
BRANCH 124 125
ATOM    125  C5' C   B  44     -21.507  22.944   8.693  0.00  0.00    +0.000 C 
BRANCH 125 126
ATOM    126  C4' C   B  44     -22.521  22.603   9.755  0.00  0.00    +0.000 C 
ATOM    127  O4' C   B  44     -22.631  23.704  10.698  0.00  0.00    +0.000 OA
ATOM    128  C3' C   B  44     -23.938  22.395   9.258  0.00  0.00    +0.000 C 
ATOM    129  C2' C   B  44     -24.762  22.686  10.504  0.00  0.00    +0.000 C 
ATOM    130  C1' C   B  44     -23.972  23.849  11.113  0.00  0.00    +0.000 C 
BRANCH 130 131
ATOM    131  N1  C   B  44     -24.454  25.170  10.657  0.00  0.00    +0.000 N 
ATOM    132  C2  C   B  44     -25.716  25.617  11.063  0.00  0.00    +0.000 A 
ATOM    133  O2  C   B  44     -26.412  24.899  11.802  0.00  0.00    +0.000 OA
ATOM    134  N3  C   B  44     -26.161  26.828  10.641  0.00  0.00    +0.000 NA
ATOM    135  C4  C   B  44     -25.398  27.583   9.846  0.00  0.00    +0.000 A 
ATOM    136  N4  C   B  44     -25.876  28.762   9.459  0.00  0.00    +0.000 N 
ATOM    137  C5  C   B  44     -24.111  27.155   9.421  0.00  0.00    +0.000 A 
ATOM    138  C6  C   B  44     -23.683  25.958   9.846  0.00  0.00    +0.000 A 
ATOM    139  H   C   B  44     -25.339  29.343   8.873  0.00  0.00    +0.000 HD
ATOM    140  H   C   B  44     -26.767  29.054   9.759  0.00  0.00    +0.000 HD
ENDBRANCH 130 131
BRANCH 129 141
ATOM    141  O2' C   B  44     -24.762  21.598  11.415  0.00  0.00    +0.000 OA
ATOM    142  H   C   B  44     -23.848  21.373  11.650  0.00  0.00    +0.000 HD
ENDBRANCH 129 141
BRANCH 128 143
ATOM    143  O3' C   B  44     -24.132  21.077   8.753  0.00  0.00    +0.000 OA
BRANCH 143 144
ATOM    144  P   U   B  45     -25.188  20.805   7.601  0.00  0.00    +0.000 P 
ATOM    145  OP2 U   B  45     -25.120  21.924   6.632  0.00  0.00    +0.000 OA
BRANCH 144 146
ATOM    146  OP1 U   B  45     -25.005  19.414   7.139  0.00  0.00    +0.000 OA
ATOM    147  H   U   B  45     -25.641  19.222   6.432  0.00  0.00    +0.000 HD
ENDBRANCH 144 146
BRANCH 144 148
ATOM    148  O5' U   B  45     -26.586  20.897   8.360  0.00  0.00    +0.000 OA
BRANCH 148 149
ATOM    149  C5' U   B  45     -26.934  19.967   9.376  0.00  0.00    +0.000 C 
BRANCH 149 150
ATOM    150  C4' U   B  45     -28.384  20.099   9.758  0.00  0.00    +0.000 C 
ATOM    151  O4' U   B  45     -28.615  21.365  10.432  0.00  0.00    +0.000 OA
ATOM    152  C3' U   B  45     -29.357  20.121   8.598  0.00  0.00    +0.000 C 
ATOM    153  C2' U   B  45     -30.570  20.816   9.202  0.00  0.00    +0.000 C 
ATOM    154  C1' U   B  45     -29.901  21.857  10.106  0.00  0.00    +0.000 C 
BRANCH 154 155
ATOM    155  N1  U   B  45     -29.752  23.174   9.450  0.00  0.00    +0.000 N 
ATOM    156  C2  U   B  45     -30.889  23.953   9.292  0.00  0.00    +0.000 A 
ATOM    157  O2  U   B  45     -31.997  23.598   9.657  0.00  0.00    +0.000 OA
ATOM    158  N3  U   B  45     -30.681  25.168   8.684  0.00  0.00    +0.000 N 
ATOM    159  C4  U   B  45     -29.483  25.676   8.229  0.00  0.00    +0.000 A 
ATOM    160  O4  U   B  45     -29.460  26.789   7.701  0.00  0.00    +0.000 OA
ATOM    161  C5  U   B  45     -28.359  24.819   8.432  0.00  0.00    +0.000 A 
ATOM    162  C6  U   B  45     -28.529  23.627   9.025  0.00  0.00    +0.000 A 
ATOM    163  H   U   B  45     -31.474  25.738   8.560  0.00  0.00    +0.000 HD
ENDBRANCH 154 155
BRANCH 153 164
ATOM    164  O2' U   B  45     -31.337  19.937   9.999  0.00  0.00    +0.000 OA
ATOM    165  H   U   B  45     -30.775  19.553  10.689  0.00  0.00    +0.000 HD
ENDBRANCH 153 164
BRANCH 152 166
ATOM    166  O3' U   B  45     -29.642  18.815   8.105  0.00  0.00    +0.000 OA
BRANCH 166 167
ATOM    167  P   U   B  46     -29.796  18.553   6.543  0.00  0.00    +0.000 P 
ATOM    168  OP2 U   B  46     -28.702  19.258   5.824  0.00  0.00    +0.000 OA
BRANCH 167 169
ATOM    169  OP1 U   B  46     -29.996  17.100   6.327  0.00  0.00    +0.000 OA
ATOM    170  H   U   B  46     -30.092  16.924   5.378  0.00  0.00    +0.000 HD
ENDBRANCH 167 169
BRANCH 167 171
ATOM    171  O5' U   B  46     -31.159  19.298   6.211  0.00  0.00    +0.000 OA
BRANCH 171 172
ATOM    172  C5' U   B  46     -32.384  18.890   6.811  0.00  0.00    +0.000 C 
BRANCH 172 173
ATOM    173  C4' U   B  46     -33.484  19.880   6.536  0.00  0.00    +0.000 C 
ATOM    174  O4' U   B  46     -33.175  21.153   7.166  0.00  0.00    +0.000 OA
ATOM    175  C3' U   B  46     -33.695  20.236   5.079  0.00  0.00    +0.000 C 
ATOM    176  C2' U   B  46     -34.400  21.581   5.177  0.00  0.00    +0.000 C 
ATOM    177  C1' U   B  46     -33.677  22.212   6.374  0.00  0.00    +0.000 C 
BRANCH 177 178
ATOM    178  N1  U   B  46     -32.550  23.074   5.958  0.00  0.00    +0.000 N 
ATOM    179  C2  U   B  46     -32.849  24.361   5.548  0.00  0.00    +0.000 A 
ATOM    180  O2  U   B  46     -33.987  24.796   5.519  0.00  0.00    +0.000 OA
ATOM    181  N3  U   B  46     -31.770  25.122   5.173  0.00  0.00    +0.000 N 
ATOM    182  C4  U   B  46     -30.446  24.736   5.165  0.00  0.00    +0.000 A 
ATOM    183  O4  U   B  46     -29.587  25.538   4.797  0.00  0.00    +0.000 OA
ATOM    184  C5  U   B  46     -30.218  23.395   5.600  0.00  0.00    +0.000 A 
ATOM    185  C6  U   B  46     -31.251  22.628   5.972  0.00  0.00    +0.000 A 
ATOM    186  H   U   B  46     -31.962  26.042   4.878  0.00  0.00    +0.000 HD
ENDBRANCH 177 178
BRANCH 176 187
ATOM    187  O2' U   B  46     -35.768  21.436   5.497  0.00  0.00    +0.000 OA
ATOM    188  H   U   B  46     -35.856  20.934   6.323  0.00  0.00    +0.000 HD
ENDBRANCH 176 187
BRANCH 175 189
ATOM    189  O3' U   B  46     -34.440  19.247   4.379  0.00  0.00    +0.000 OA
BRANCH 189 190
ATOM    190  P   U   B  47     -34.163  18.967   2.838  0.00  0.00    +0.000 P 
ATOM    191  OP1 U   B  47     -34.872  17.721   2.461  0.00  0.00    +0.000 OA
BRANCH 190 192
ATOM    192  OP2 U   B  47     -32.704  19.090   2.583  0.00  0.00    +0.000 OA
ATOM    193  H   U   B  47     -32.524  18.921   1.645  0.00  0.00    +0.000 HD
ENDBRANCH 190 192
BRANCH 190 194
ATOM    194  O5' U   B  47     -34.895  20.190   2.129  0.00  0.00    +0.000 OA
BRANCH 194 195
ATOM    195  C5' U   B  47     -36.296  20.394   2.284  0.00  0.00    +0.000 C 
BRANCH 195 196
ATOM    196  C4' U   B  47     -36.727  21.714   1.696  0.00  0.00    +0.000 C 
ATOM    197  O4' U   B  47     -36.157  22.811   2.462  0.00  0.00    +0.000 OA
ATOM    198  C3' U   B  47     -36.275  21.986   0.278  0.00  0.00    +0.000 C 
ATOM    199  C2' U   B  47     -36.379  23.505   0.199  0.00  0.00    +0.000 C 
ATOM    200  C1' U   B  47     -35.914  23.911   1.605  0.00  0.00    +0.000 C 
BRANCH 200 201
ATOM    201  N1  U   B  47     -34.474  24.246   1.647  0.00  0.00    +0.000 N 
ATOM    202  C2  U   B  47     -34.115  25.530   1.273  0.00  0.00    +0.000 A 
ATOM    203  O2  U   B  47     -34.926  26.368   0.922  0.00  0.00    +0.000 OA
ATOM    204  N3  U   B  47     -32.766  25.798   1.328  0.00  0.00    +0.000 N 
ATOM    205  C4  U   B  47     -31.762  24.933   1.707  0.00  0.00    +0.000 A 
ATOM    206  O4  U   B  47     -30.594  25.326   1.703  0.00  0.00    +0.000 OA
ATOM    207  C5  U   B  47     -32.214  23.628   2.077  0.00  0.00    +0.000 A 
ATOM    208  C6  U   B  47     -33.523  23.338   2.035  0.00  0.00    +0.000 A 
ATOM    209  H   U   B  47     -32.488  26.706   1.068  0.00  0.00    +0.000 HD
ENDBRANCH 200 201
BRANCH 199 210
ATOM    210  O2' U   B  47     -37.714  23.930   0.018  0.00  0.00    +0.000 OA
ATOM    211  H   U   B  47     -38.266  23.577   0.733  0.00  0.00    +0.000 HD
ENDBRANCH 199 210
BRANCH 198 212
ATOM    212  O3' U   B  47     -37.061  21.306  -0.690  0.00  0.00    +0.000 OA
BRANCH 212 213
ATOM    213  P   A   B  48     -36.400  20.811  -2.066  0.00  0.00    +0.000 P 
ATOM    214  OP1 A   B  48     -37.364  19.910  -2.743  0.00  0.00    +0.000 OA
BRANCH 213 215
ATOM    215  OP2 A   B  48     -35.019  20.339  -1.793  0.00  0.00    +0.000 OA
ATOM    216  H   A   B  48     -34.611  20.037  -2.620  0.00  0.00    +0.000 HD
ENDBRANCH 213 215
BRANCH 213 217
ATOM    217  O5' A   B  48     -36.302  22.160  -2.909  0.00  0.00    +0.000 OA
BRANCH 217 218
ATOM    218  C5' A   B  48     -37.478  22.879  -3.265  0.00  0.00    +0.000 C 
BRANCH 218 219
ATOM    219  C4' A   B  48     -37.133  24.237  -3.823  0.00  0.00    +0.000 C 
ATOM    220  O4' A   B  48     -36.513  25.052  -2.794  0.00  0.00    +0.000 OA
ATOM    221  C3' A   B  48     -36.125  24.253  -4.954  0.00  0.00    +0.000 C 
ATOM    222  C2' A   B  48     -35.606  25.682  -4.893  0.00  0.00    +0.000 C 
ATOM    223  C1' A   B  48     -35.569  25.925  -3.383  0.00  0.00    +0.000 C 
BRANCH 223 224
ATOM    224  N9  A   B  48     -34.243  25.643  -2.806  0.00  0.00    +0.000 N 
ATOM    225  C8  A   B  48     -33.813  24.509  -2.166  0.00  0.00    +0.000 A 
ATOM    226  N7  A   B  48     -32.564  24.571  -1.767  0.00  0.00    +0.000 NA
ATOM    227  C5  A   B  48     -32.145  25.829  -2.172  0.00  0.00    +0.000 A 
ATOM    228  C6  A   B  48     -30.922  26.506  -2.049  0.00  0.00    +0.000 A 
ATOM    229  N6  A   B  48     -29.841  25.984  -1.453  0.00  0.00    +0.000 N 
ATOM    230  N1  A   B  48     -30.835  27.747  -2.563  0.00  0.00    +0.000 NA
ATOM    231  C2  A   B  48     -31.911  28.268  -3.161  0.00  0.00    +0.000 A 
ATOM    232  N3  A   B  48     -33.118  27.734  -3.337  0.00  0.00    +0.000 NA
ATOM    233  C4  A   B  48     -33.170  26.499  -2.814  0.00  0.00    +0.000 A 
ATOM    234  H   A   B  48     -29.009  26.507  -1.397  0.00  0.00    +0.000 HD
ATOM    235  H   A   B  48     -29.879  25.077  -1.072  0.00  0.00    +0.000 HD
ENDBRANCH 223 224
BRANCH 222 236
ATOM    236  O2' A   B  48     -36.513  26.594  -5.482  0.00  0.00    +0.000 OA
ATOM    237  H   A   B  48     -37.377  26.515  -5.049  0.00  0.00    +0.000 HD
ENDBRANCH 222 236
BRANCH 221 238
ATOM    238  O3' A   B  48     -36.699  23.910  -6.206  0.00  0.00    +0.000 OA
BRANCH 238 239
ATOM    239  P   U   B  49     -35.842  23.139  -7.315  0.00  0.00    +0.000 P 
ATOM    240  OP1 U   B  49     -36.771  22.665  -8.368  0.00  0.00    +0.000 OA
BRANCH 239 241
ATOM    241  OP2 U   B  49     -34.948  22.172  -6.626  0.00  0.00    +0.000 OA
ATOM    242  H   U   B  49     -34.420  21.694  -7.284  0.00  0.00    +0.000 HD
ENDBRANCH 239 241
BRANCH 239 243
ATOM    243  O5' U   B  49     -34.933  24.294  -7.933  0.00  0.00    +0.000 OA
BRANCH 243 244
ATOM    244  C5' U   B  49     -35.516  25.412  -8.591  0.00  0.00    +0.000 C 
BRANCH 244 245
ATOM    245  C4' U   B  49     -34.505  26.512  -8.809  0.00  0.00    +0.000 C 
ATOM    246  O4' U   B  49     -34.022  27.003  -7.527  0.00  0.00    +0.000 OA
ATOM    247  C3' U   B  49     -33.240  26.119  -9.544  0.00  0.00    +0.000 C 
ATOM    248  C2' U   B  49     -32.276  27.217  -9.120  0.00  0.00    +0.000 C 
ATOM    249  C1' U   B  49     -32.675  27.417  -7.653  0.00  0.00    +0.000 C 
BRANCH 249 250
ATOM    250  N1  U   B  49     -31.838  26.612  -6.734  0.00  0.00    +0.000 N 
ATOM    251  C2  U   B  49     -30.615  27.143  -6.364  0.00  0.00    +0.000 A 
ATOM    252  O2  U   B  49     -30.215  28.224  -6.757  0.00  0.00    +0.000 OA
ATOM    253  N3  U   B  49     -29.869  26.359  -5.511  0.00  0.00    +0.000 N 
ATOM    254  C4  U   B  49     -30.214  25.125  -5.007  0.00  0.00    +0.000 A 
ATOM    255  O4  U   B  49     -29.436  24.542  -4.251  0.00  0.00    +0.000 OA
ATOM    256  C5  U   B  49     -31.492  24.645  -5.437  0.00  0.00    +0.000 A 
ATOM    257  C6  U   B  49     -32.241  25.386  -6.267  0.00  0.00    +0.000 A 
ATOM    258  H   U   B  49     -28.996  26.720  -5.232  0.00  0.00    +0.000 HD
ENDBRANCH 249 250
BRANCH 248 259
ATOM    259  O2' U   B  49     -32.504  28.422  -9.822  0.00  0.00    +0.000 OA
ATOM    260  H   U   B  49     -33.425  28.700  -9.696  0.00  0.00    +0.000 HD
ENDBRANCH 248 259
BRANCH 247 261
ATOM    261  O3' U   B  49     -33.418  26.032 -10.949  0.00  0.00    +0.000 OA
BRANCH 261 262
ATOM    262  P   U   B  50     -32.564  24.980 -11.815  0.00  0.00    +0.000 P 
ATOM    263  OP1 U   B  50     -33.127  24.948 -13.183  0.00  0.00    +0.000 OA
BRANCH 262 264
ATOM    264  OP2 U   B  50     -32.447  23.722 -11.034  0.00  0.00    +0.000 OA
ATOM    265  H   U   B  50     -31.934  23.073 -11.541  0.00  0.00    +0.000 HD
ENDBRANCH 262 264
BRANCH 262 266
ATOM    266  O5' U   B  50     -31.122  25.655 -11.884  0.00  0.00    +0.000 OA
BRANCH 266 267
ATOM    267  C5' U   B  50     -30.926  26.904 -12.536  0.00  0.00    +0.000 C 
BRANCH 267 268
ATOM    268  C4' U   B  50     -29.580  27.501 -12.199  0.00  0.00    +0.000 C 
ATOM    269  O4' U   B  50     -29.478  27.706 -10.761  0.00  0.00    +0.000 OA
ATOM    270  C3' U   B  50     -28.369  26.654 -12.529  0.00  0.00    +0.000 C 
ATOM    271  C2' U   B  50     -27.310  27.246 -11.610  0.00  0.00    +0.000 C 
ATOM    272  C1' U   B  50     -28.135  27.536 -10.351  0.00  0.00    +0.000 C 
BRANCH 272 273
ATOM    273  N1  U   B  50     -28.067  26.430  -9.372  0.00  0.00    +0.000 N 
ATOM    274  C2  U   B  50     -26.953  26.377  -8.552  0.00  0.00    +0.000 A 
ATOM    275  O2  U   B  50     -26.050  27.193  -8.607  0.00  0.00    +0.000 OA
ATOM    276  N3  U   B  50     -26.932  25.330  -7.657  0.00  0.00    +0.000 N 
ATOM    277  C4  U   B  50     -27.889  24.353  -7.506  0.00  0.00    +0.000 A 
ATOM    278  O4  U   B  50     -27.727  23.476  -6.658  0.00  0.00    +0.000 OA
ATOM    279  C5  U   B  50     -29.009  24.477  -8.390  0.00  0.00    +0.000 A 
ATOM    280  C6  U   B  50     -29.058  25.484  -9.272  0.00  0.00    +0.000 A 
ATOM    281  H   U   B  50     -26.149  25.275  -7.062  0.00  0.00    +0.000 HD
ENDBRANCH 272 273
BRANCH 271 282
ATOM    282  O2' U   B  50     -26.795  28.465 -12.110  0.00  0.00    +0.000 OA
ATOM    283  H   U   B  50     -27.523  29.091 -12.250  0.00  0.00    +0.000 HD
ENDBRANCH 271 282
BRANCH 270 284
ATOM    284  O3' U   B  50     -28.014  26.707 -13.903  0.00  0.00    +0.000 OA
BRANCH 284 285
ATOM    285  P   U   B  51     -27.295  25.456 -14.612  0.00  0.00    +0.000 P 
ATOM    286  OP1 U   B  51     -27.257  25.709 -16.070  0.00  0.00    +0.000 OA
BRANCH 285 287
ATOM    287  OP2 U   B  51     -27.918  24.206 -14.095  0.00  0.00    +0.000 OA
ATOM    288  H   U   B  51     -27.497  23.438 -14.512  0.00  0.00    +0.000 HD
ENDBRANCH 285 287
BRANCH 285 289
ATOM    289  O5' U   B  51     -25.802  25.529 -14.054  0.00  0.00    +0.000 OA
BRANCH 289 290
ATOM    290  C5' U   B  51     -24.961  26.640 -14.342  0.00  0.00    +0.000 C 
BRANCH 290 291
ATOM    291  C4' U   B  51     -23.743  26.660 -13.451  0.00  0.00    +0.000 C 
ATOM    292  O4' U   B  51     -24.153  26.683 -12.055  0.00  0.00    +0.000 OA
ATOM    293  C3' U   B  51     -22.832  25.454 -13.541  0.00  0.00    +0.000 C 
ATOM    294  C2' U   B  51     -22.099  25.502 -12.208  0.00  0.00    +0.000 C 
ATOM    295  C1' U   B  51     -23.216  25.973 -11.270  0.00  0.00    +0.000 C 
BRANCH 295 296
ATOM    296  N1  U   B  51     -23.906  24.851 -10.599  0.00  0.00    +0.000 N 
ATOM    297  C2  U   B  51     -23.281  24.283  -9.501  0.00  0.00    +0.000 A 
ATOM    298  O2  U   B  51     -22.203  24.665  -9.081  0.00  0.00    +0.000 OA
ATOM    299  N3  U   B  51     -23.963  23.247  -8.910  0.00  0.00    +0.000 N 
ATOM    300  C4  U   B  51     -25.179  22.731  -9.295  0.00  0.00    +0.000 A 
ATOM    301  O4  U   B  51     -25.668  21.794  -8.662  0.00  0.00    +0.000 OA
ATOM    302  C5  U   B  51     -25.763  23.371 -10.435  0.00  0.00    +0.000 A 
ATOM    303  C6  U   B  51     -25.122  24.382 -11.033  0.00  0.00    +0.000 A 
ATOM    304  H   U   B  51     -23.536  22.829  -8.127  0.00  0.00    +0.000 HD
ENDBRANCH 295 296
BRANCH 294 305
ATOM    305  O2' U   B  51     -21.067  26.470 -12.207  0.00  0.00    +0.000 OA
ATOM    306  H   U   B  51     -21.437  27.338 -12.433  0.00  0.00    +0.000 HD
ENDBRANCH 294 305
BRANCH 293 307
ATOM    307  O3' U   B  51     -21.958  25.514 -14.661  0.00  0.00    +0.000 OA
BRANCH 307 308
ATOM    308  P   U   B  52     -21.420  24.165 -15.358  0.00  0.00    +0.000 P 
ATOM    309  OP1 U   B  52     -20.740  24.537 -16.617  0.00  0.00    +0.000 OA
BRANCH 308 310
ATOM    310  OP2 U   B  52     -22.535  23.178 -15.387  0.00  0.00    +0.000 OA
ATOM    311  H   U   B  52     -23.218  23.480 -16.006  0.00  0.00    +0.000 HD
ENDBRANCH 308 310
BRANCH 308 312
ATOM    312  O5' U   B  52     -20.319  23.635 -14.333  0.00  0.00    +0.000 OA
BRANCH 312 313
ATOM    313  C5' U   B  52     -19.142  24.389 -14.061  0.00  0.00    +0.000 C 
BRANCH 313 314
ATOM    314  C4' U   B  52     -18.391  23.826 -12.879  0.00  0.00    +0.000 C 
ATOM    315  O4' U   B  52     -19.232  23.878 -11.690  0.00  0.00    +0.000 OA
ATOM    316  C3' U   B  52     -17.993  22.369 -12.980  0.00  0.00    +0.000 C 
ATOM    317  C2' U   B  52     -17.816  21.980 -11.519  0.00  0.00    +0.000 C 
ATOM    318  C1' U   B  52     -18.952  22.769 -10.860  0.00  0.00    +0.000 C 
BRANCH 318 319
ATOM    319  N1  U   B  52     -20.188  21.967 -10.707  0.00  0.00    +0.000 N 
ATOM    320  C2  U   B  52     -20.251  21.102  -9.629  0.00  0.00    +0.000 A 
ATOM    321  O2  U   B  52     -19.347  20.979  -8.820  0.00  0.00    +0.000 OA
ATOM    322  N3  U   B  52     -21.420  20.384  -9.528  0.00  0.00    +0.000 N 
ATOM    323  C4  U   B  52     -22.504  20.439 -10.378  0.00  0.00    +0.000 A 
ATOM    324  O4  U   B  52     -23.484  19.731 -10.158  0.00  0.00    +0.000 OA
ATOM    325  C5  U   B  52     -22.358  21.357 -11.469  0.00  0.00    +0.000 A 
ATOM    326  C6  U   B  52     -21.233  22.069 -11.591  0.00  0.00    +0.000 A 
ATOM    327  H   U   B  52     -21.490  19.764  -8.767  0.00  0.00    +0.000 HD
ENDBRANCH 318 319
BRANCH 317 328
ATOM    328  O2' U   B  52     -16.582  22.438 -10.999  0.00  0.00    +0.000 OA
ATOM    329  H   U   B  52     -16.518  23.399 -11.117  0.00  0.00    +0.000 HD
ENDBRANCH 317 328
BRANCH 316 330
ATOM    330  O3' U   B  52     -16.820  22.179 -13.759  0.00  0.00    +0.000 OA
BRANCH 330 331
ATOM    331  P   A   B  53     -16.609  20.824 -14.608  0.00  0.00    +0.000 P 
ATOM    332  OP1 A   B  53     -15.403  20.989 -15.453  0.00  0.00    +0.000 OA
BRANCH 331 333
ATOM    333  OP2 A   B  53     -17.906  20.462 -15.234  0.00  0.00    +0.000 OA
ATOM    334  H   A   B  53     -18.125  21.110 -15.922  0.00  0.00    +0.000 HD
ENDBRANCH 331 333
BRANCH 331 335
ATOM    335  O5' A   B  53     -16.284  19.737 -13.485  0.00  0.00    +0.000 OA
BRANCH 335 336
ATOM    336  C5' A   B  53     -15.086  19.818 -12.719  0.00  0.00    +0.000 C 
BRANCH 336 337
ATOM    337  C4' A   B  53     -15.101  18.830 -11.576  0.00  0.00    +0.000 C 
ATOM    338  O4' A   B  53     -16.192  19.144 -10.665  0.00  0.00    +0.000 OA
ATOM    339  C3' A   B  53     -15.351  17.384 -11.956  0.00  0.00    +0.000 C 
ATOM    340  C2' A   B  53     -15.859  16.797 -10.648  0.00  0.00    +0.000 C 
ATOM    341  C1' A   B  53     -16.705  17.952 -10.111  0.00  0.00    +0.000 C 
BRANCH 341 342
ATOM    342  N9  A   B  53     -18.121  17.824 -10.490  0.00  0.00    +0.000 N 
ATOM    343  C8  A   B  53     -18.786  18.444 -11.516  0.00  0.00    +0.000 A 
ATOM    344  N7  A   B  53     -20.055  18.121 -11.588  0.00  0.00    +0.000 NA
ATOM    345  C5  A   B  53     -20.236  17.229 -10.542  0.00  0.00    +0.000 A 
ATOM    346  C6  A   B  53     -21.357  16.522 -10.081  0.00  0.00    +0.000 A 
ATOM    347  N1  A   B  53     -21.198  15.714  -9.014  0.00  0.00    +0.000 NA
ATOM    348  C2  A   B  53     -19.990  15.623  -8.452  0.00  0.00    +0.000 A 
ATOM    349  N3  A   B  53     -18.856  16.240  -8.792  0.00  0.00    +0.000 NA
ATOM    350  C4  A   B  53     -19.049  17.037  -9.857  0.00  0.00    +0.000 A 
BRANCH 346 351
ATOM    351  N6  A   B  53     -22.570  16.611 -10.647  0.00  0.00    +0.000 N 
ATOM    352  H   A   B  53     -22.707  17.195 -11.427  0.00  0.00    +0.000 HD
ATOM    353  H   A   B  53     -23.323  16.092 -10.282  0.00  0.00    +0.000 HD
ENDBRANCH 346 351
ENDBRANCH 341 342
BRANCH 340 354
ATOM    354  O2' A   B  53     -14.803  16.545  -9.739  0.00  0.00    +0.000 OA
ATOM    355  H   A   B  53     -14.306  17.364  -9.586  0.00  0.00    +0.000 HD
ENDBRANCH 340 354
BRANCH 339 356
ATOM    356  O3' A   B  53     -14.186  16.740 -12.450  0.00  0.00    +0.000 OA
BRANCH 356 357
ATOM    357  P   A   B  54     -14.303  15.551 -13.530  0.00  0.00    +0.000 P 
ATOM    358  OP2 A   B  54     -15.370  15.899 -14.501  0.00  0.00    +0.000 OA
BRANCH 357 359
ATOM    359  OP1 A   B  54     -12.938  15.235 -14.013  0.00  0.00    +0.000 OA
ATOM    360  H   A   B  54     -12.984  14.520 -14.666  0.00  0.00    +0.000 HD
ENDBRANCH 357 359
BRANCH 357 361
ATOM    361  O5' A   B  54     -14.821  14.313 -12.659  0.00  0.00    +0.000 OA
BRANCH 361 362
ATOM    362  C5' A   B  54     -14.008  13.760 -11.629  0.00  0.00    +0.000 C 
BRANCH 362 363
ATOM    363  C4' A   B  54     -14.808  12.843 -10.732  0.00  0.00    +0.000 C 
ATOM    364  O4' A   B  54     -15.915  13.575 -10.138  0.00  0.00    +0.000 OA
ATOM    365  C3' A   B  54     -15.480  11.667 -11.413  0.00  0.00    +0.000 C 
ATOM    366  C2' A   B  54     -16.582  11.320 -10.425  0.00  0.00    +0.000 C 
ATOM    367  C1' A   B  54     -17.022  12.711  -9.970  0.00  0.00    +0.000 C 
BRANCH 367 368
ATOM    368  N9  A   B  54     -18.150  13.217 -10.765  0.00  0.00    +0.000 N 
ATOM    369  C8  A   B  54     -18.127  14.090 -11.822  0.00  0.00    +0.000 A 
ATOM    370  N7  A   B  54     -19.313  14.343 -12.319  0.00  0.00    +0.000 NA
ATOM    371  C5  A   B  54     -20.174  13.585 -11.541  0.00  0.00    +0.000 A 
ATOM    372  C6  A   B  54     -21.567  13.413 -11.558  0.00  0.00    +0.000 A 
ATOM    373  N1  A   B  54     -22.111  12.585 -10.645  0.00  0.00    +0.000 NA
ATOM    374  C2  A   B  54     -21.302  11.972  -9.773  0.00  0.00    +0.000 A 
ATOM    375  N3  A   B  54     -19.977  12.054  -9.654  0.00  0.00    +0.000 NA
ATOM    376  C4  A   B  54     -19.468  12.885 -10.580  0.00  0.00    +0.000 A 
BRANCH 372 377
ATOM    377  N6  A   B  54     -22.373  14.025 -12.434  0.00  0.00    +0.000 N 
ATOM    378  H   A   B  54     -21.995  14.634 -13.109  0.00  0.00    +0.000 HD
ATOM    379  H   A   B  54     -23.344  13.866 -12.403  0.00  0.00    +0.000 HD
ENDBRANCH 372 377
ENDBRANCH 367 368
BRANCH 366 380
ATOM    380  O2' A   B  54     -16.085  10.609  -9.306  0.00  0.00    +0.000 OA
ATOM    381  H   A   B  54     -15.384  11.126  -8.879  0.00  0.00    +0.000 HD
ENDBRANCH 366 380
BRANCH 365 382
ATOM    382  O3' A   B  54     -14.586  10.589 -11.662  0.00  0.00    +0.000 OA
BRANCH 382 383
ATOM    383  P   A   B  55     -14.827   9.609 -12.917  0.00  0.00    +0.000 P 
ATOM    384  OP2 A   B  55     -15.272  10.417 -14.079  0.00  0.00    +0.000 OA
BRANCH 383 385
ATOM    385  OP1 A   B  55     -13.635   8.736 -13.042  0.00  0.00    +0.000 OA
ATOM    386  H   A   B  55     -13.753   8.133 -13.793  0.00  0.00    +0.000 HD
ENDBRANCH 383 385
BRANCH 383 387
ATOM    387  O5' A   B  55     -16.056   8.707 -12.448  0.00  0.00    +0.000 OA
BRANCH 387 388
ATOM    388  C5' A   B  55     -15.933   7.837 -11.327  0.00  0.00    +0.000 C 
BRANCH 388 389
ATOM    389  C4' A   B  55     -17.286   7.344 -10.869  0.00  0.00    +0.000 C 
ATOM    390  O4' A   B  55     -18.141   8.475 -10.547  0.00  0.00    +0.000 OA
ATOM    391  C3' A   B  55     -18.089   6.562 -11.889  0.00  0.00    +0.000 C 
ATOM    392  C2' A   B  55     -19.507   6.719 -11.361  0.00  0.00    +0.000 C 
ATOM    393  C1' A   B  55     -19.485   8.163 -10.858  0.00  0.00    +0.000 C 
BRANCH 393 394
ATOM    394  N9  A   B  55     -19.975   9.108 -11.871  0.00  0.00    +0.000 N 
ATOM    395  C8  A   B  55     -19.245   9.920 -12.701  0.00  0.00    +0.000 A 
ATOM    396  N7  A   B  55     -19.983  10.654 -13.498  0.00  0.00    +0.000 NA
ATOM    397  C5  A   B  55     -21.283  10.301 -13.172  0.00  0.00    +0.000 A 
ATOM    398  C6  A   B  55     -22.530  10.724 -13.657  0.00  0.00    +0.000 A 
ATOM    399  N1  A   B  55     -23.634  10.174 -13.120  0.00  0.00    +0.000 NA
ATOM    400  C2  A   B  55     -23.492   9.260 -12.157  0.00  0.00    +0.000 A 
ATOM    401  N3  A   B  55     -22.375   8.782 -11.612  0.00  0.00    +0.000 NA
ATOM    402  C4  A   B  55     -21.293   9.349 -12.172  0.00  0.00    +0.000 A 
BRANCH 398 403
ATOM    403  N6  A   B  55     -22.671  11.640 -14.625  0.00  0.00    +0.000 N 
ATOM    404  H   A   B  55     -21.875  12.054 -15.031  0.00  0.00    +0.000 HD
ATOM    405  H   A   B  55     -23.570  11.899 -14.931  0.00  0.00    +0.000 HD
ENDBRANCH 398 403
ENDBRANCH 393 394
BRANCH 392 406
ATOM    406  O2' A   B  55     -19.763   5.857 -10.265  0.00  0.00    +0.000 OA
ATOM    407  H   A   B  55     -19.112   6.022  -9.565  0.00  0.00    +0.000 HD
ENDBRANCH 392 406
BRANCH 391 408
ATOM    408  O3' A   B  55     -17.672   5.206 -11.991  0.00  0.00    +0.000 OA
BRANCH 408 409
ATOM    409  P   A   B  56     -17.829   4.406 -13.383  0.00  0.00    +0.000 P 
ATOM    410  OP2 A   B  56     -17.498   5.321 -14.500  0.00  0.00    +0.000 OA
BRANCH 409 411
ATOM    411  OP1 A   B  56     -17.108   3.120 -13.247  0.00  0.00    +0.000 OA
ATOM    412  H   A   B  56     -17.186   2.617 -14.072  0.00  0.00    +0.000 HD
ENDBRANCH 409 411
BRANCH 409 413
ATOM    413  O5' A   B  56     -19.391   4.097 -13.454  0.00  0.00    +0.000 OA
BRANCH 413 414
ATOM    414  C5' A   B  56     -20.022   3.290 -12.461  0.00  0.00    +0.000 C 
BRANCH 414 415
ATOM    415  C4' A   B  56     -21.525   3.382 -12.564  0.00  0.00    +0.000 C 
ATOM    416  O4' A   B  56     -21.943   4.767 -12.415  0.00  0.00    +0.000 OA
ATOM    417  C3' A   B  56     -22.121   2.956 -13.889  0.00  0.00    +0.000 C 
ATOM    418  C2' A   B  56     -23.448   3.703 -13.909  0.00  0.00    +0.000 C 
ATOM    419  C1' A   B  56     -23.070   5.023 -13.229  0.00  0.00    +0.000 C 
BRANCH 419 420
ATOM    420  N9  A   B  56     -22.729   6.086 -14.182  0.00  0.00    +0.000 N 
ATOM    421  C8  A   B  56     -21.484   6.498 -14.577  0.00  0.00    +0.000 A 
ATOM    422  N7  A   B  56     -21.507   7.488 -15.438  0.00  0.00    +0.000 NA
ATOM    423  C5  A   B  56     -22.855   7.744 -15.621  0.00  0.00    +0.000 A 
ATOM    424  C6  A   B  56     -23.544   8.679 -16.410  0.00  0.00    +0.000 A 
ATOM    425  N1  A   B  56     -24.887   8.672 -16.363  0.00  0.00    +0.000 NA
ATOM    426  C2  A   B  56     -25.499   7.781 -15.574  0.00  0.00    +0.000 A 
ATOM    427  N3  A   B  56     -24.964   6.855 -14.783  0.00  0.00    +0.000 NA
ATOM    428  C4  A   B  56     -23.620   6.889 -14.853  0.00  0.00    +0.000 A 
BRANCH 424 429
ATOM    429  N6  A   B  56     -22.929   9.571 -17.202  0.00  0.00    +0.000 N 
ATOM    430  H   A   B  56     -23.461  10.205 -17.735  0.00  0.00    +0.000 HD
ATOM    431  H   A   B  56     -21.946   9.591 -17.250  0.00  0.00    +0.000 HD
ENDBRANCH 424 429
ENDBRANCH 419 420
BRANCH 418 432
ATOM    432  O2' A   B  56     -24.436   3.050 -13.129  0.00  0.00    +0.000 OA
ATOM    433  H   A   B  56     -24.113   2.944 -12.221  0.00  0.00    +0.000 HD
ENDBRANCH 418 432
BRANCH 417 434
ATOM    434  O3' A   B  56     -22.271   1.541 -13.971  0.00  0.00    +0.000 OA
BRANCH 434 435
ATOM    435  P   A   B  57     -22.022   0.755 -15.360  0.00  0.00    +0.000 P 
ATOM    436  OP2 A   B  57     -20.886   1.407 -16.064  0.00  0.00    +0.000 OA
BRANCH 435 437
ATOM    437  OP1 A   B  57     -21.965  -0.694 -15.060  0.00  0.00    +0.000 OA
ATOM    438  H   A   B  57     -21.816  -1.189 -15.881  0.00  0.00    +0.000 HD
ENDBRANCH 435 437
BRANCH 435 439
ATOM    439  O5' A   B  57     -23.349   1.042 -16.198  0.00  0.00    +0.000 OA
BRANCH 439 440
ATOM    440  C5' A   B  57     -24.613   0.560 -15.747  0.00  0.00    +0.000 C 
BRANCH 440 441
ATOM    441  C4' A   B  57     -25.739   1.168 -16.552  0.00  0.00    +0.000 C 
ATOM    442  O4' A   B  57     -25.714   2.615 -16.386  0.00  0.00    +0.000 OA
ATOM    443  C3' A   B  57     -25.665   0.954 -18.048  0.00  0.00    +0.000 C 
ATOM    444  C2' A   B  57     -26.421   2.154 -18.606  0.00  0.00    +0.000 C 
ATOM    445  C1' A   B  57     -26.115   3.251 -17.579  0.00  0.00    +0.000 C 
BRANCH 445 446
ATOM    446  N9  A   B  57     -25.050   4.173 -17.997  0.00  0.00    +0.000 N 
ATOM    447  C8  A   B  57     -23.697   4.044 -17.820  0.00  0.00    +0.000 A 
ATOM    448  N7  A   B  57     -23.009   5.052 -18.304  0.00  0.00    +0.000 NA
ATOM    449  C5  A   B  57     -23.974   5.900 -18.831  0.00  0.00    +0.000 A 
ATOM    450  C6  A   B  57     -23.894   7.141 -19.483  0.00  0.00    +0.000 A 
ATOM    451  N1  A   B  57     -25.043   7.717 -19.880  0.00  0.00    +0.000 NA
ATOM    452  C2  A   B  57     -26.195   7.086 -19.636  0.00  0.00    +0.000 A 
ATOM    453  N3  A   B  57     -26.402   5.918 -19.030  0.00  0.00    +0.000 NA
ATOM    454  C4  A   B  57     -25.236   5.368 -18.648  0.00  0.00    +0.000 A 
BRANCH 450 455
ATOM    455  N6  A   B  57     -22.735   7.771 -19.733  0.00  0.00    +0.000 N 
ATOM    456  H   A   B  57     -22.737   8.641 -20.194  0.00  0.00    +0.000 HD
ATOM    457  H   A   B  57     -21.883   7.363 -19.455  0.00  0.00    +0.000 HD
ENDBRANCH 450 455
ENDBRANCH 445 446
BRANCH 444 458
ATOM    458  O2' A   B  57     -27.825   1.929 -18.631  0.00  0.00    +0.000 OA
ATOM    459  H   A   B  57     -28.135   1.718 -17.736  0.00  0.00    +0.000 HD
ENDBRANCH 444 458
BRANCH 443 460
ATOM    460  O3' A   B  57     -26.259  -0.287 -18.440  0.00  0.00    +0.000 OA
BRANCH 460 461
ATOM    461  P   C   B  58     -25.456  -1.678 -18.416  0.00  0.00    +0.000 P 
ATOM    462  OP1 C   B  58     -26.407  -2.716 -17.953  0.00  0.00    +0.000 OA
BRANCH 461 463
ATOM    463  OP2 C   B  58     -24.177  -1.472 -17.683  0.00  0.00    +0.000 OA
ATOM    464  H   C   B  58     -23.671  -0.762 -18.109  0.00  0.00    +0.000 HD
ENDBRANCH 461 463
BRANCH 461 465
ATOM    465  O5' C   B  58     -25.097  -1.982 -19.932  0.00  0.00    +0.000 OA
BRANCH 465 466
ATOM    466  C5' C   B  58     -26.055  -2.550 -20.824  0.00  0.00    +0.000 C 
BRANCH 466 467
ATOM    467  C4' C   B  58     -25.531  -2.528 -22.237  0.00  0.00    +0.000 C 
ATOM    468  O4' C   B  58     -25.293  -1.152 -22.631  0.00  0.00    +0.000 OA
ATOM    469  C3' C   B  58     -24.203  -3.225 -22.451  0.00  0.00    +0.000 C 
ATOM    470  C2' C   B  58     -23.631  -2.500 -23.662  0.00  0.00    +0.000 C 
ATOM    471  C1' C   B  58     -24.129  -1.070 -23.426  0.00  0.00    +0.000 C 
BRANCH 471 472
ATOM    472  N1  C   B  58     -23.155  -0.214 -22.715  0.00  0.00    +0.000 N 
ATOM    473  C2  C   B  58     -22.157   0.430 -23.450  0.00  0.00    +0.000 A 
ATOM    474  O2  C   B  58     -22.109   0.260 -24.682  0.00  0.00    +0.000 OA
ATOM    475  N3  C   B  58     -21.264   1.224 -22.810  0.00  0.00    +0.000 NA
ATOM    476  C4  C   B  58     -21.342   1.387 -21.490  0.00  0.00    +0.000 A 
ATOM    477  N4  C   B  58     -20.441   2.179 -20.899  0.00  0.00    +0.000 N 
ATOM    478  C5  C   B  58     -22.347   0.749 -20.717  0.00  0.00    +0.000 A 
ATOM    479  C6  C   B  58     -23.222  -0.035 -21.360  0.00  0.00    +0.000 A 
ATOM    480  H   C   B  58     -19.745   2.620 -21.438  0.00  0.00    +0.000 HD
ATOM    481  H   C   B  58     -20.474   2.321 -19.925  0.00  0.00    +0.000 HD
ENDBRANCH 471 472
BRANCH 470 482
ATOM    482  O2' C   B  58     -24.182  -2.987 -24.874  0.00  0.00    +0.000 OA
ATOM    483  H   C   B  58     -25.148  -2.909 -24.844  0.00  0.00    +0.000 HD
ENDBRANCH 470 482
BRANCH 469 484
ATOM    484  O3' C   B  58     -24.361  -4.627 -22.659  0.00  0.00    +0.000 OA
BRANCH 484 485
ATOM    485  P   A   B  59     -23.410  -5.718 -21.926  0.00  0.00    +0.000 P 
ATOM    486  OP1 A   B  59     -24.063  -7.049 -21.970  0.00  0.00    +0.000 OA
BRANCH 485 487
ATOM    487  OP2 A   B  59     -23.001  -5.146 -20.621  0.00  0.00    +0.000 OA
ATOM    488  H   A   B  59     -22.592  -4.278 -20.762  0.00  0.00    +0.000 HD
ENDBRANCH 485 487
BRANCH 485 489
ATOM    489  O5' A   B  59     -22.122  -5.773 -22.865  0.00  0.00    +0.000 OA
BRANCH 489 490
ATOM    490  C5' A   B  59     -22.190  -6.342 -24.169  0.00  0.00    +0.000 C 
BRANCH 490 491
ATOM    491  C4' A   B  59     -21.016  -5.902 -25.011  0.00  0.00    +0.000 C 
ATOM    492  O4' A   B  59     -21.001  -4.453 -25.093  0.00  0.00    +0.000 OA
ATOM    493  C3' A   B  59     -19.644  -6.255 -24.474  0.00  0.00    +0.000 C 
ATOM    494  C2' A   B  59     -18.757  -5.212 -25.133  0.00  0.00    +0.000 C 
ATOM    495  C1' A   B  59     -19.670  -3.987 -25.109  0.00  0.00    +0.000 C 
BRANCH 495 496
ATOM    496  N9  A   B  59     -19.454  -3.150 -23.920  0.00  0.00    +0.000 N 
ATOM    497  C8  A   B  59     -20.164  -3.152 -22.750  0.00  0.00    +0.000 A 
ATOM    498  N7  A   B  59     -19.731  -2.281 -21.869  0.00  0.00    +0.000 NA
ATOM    499  C5  A   B  59     -18.664  -1.665 -22.507  0.00  0.00    +0.000 A 
ATOM    500  C6  A   B  59     -17.784  -0.647 -22.110  0.00  0.00    +0.000 A 
ATOM    501  N6  A   B  59     -17.838  -0.048 -20.909  0.00  0.00    +0.000 N 
ATOM    502  N1  A   B  59     -16.834  -0.264 -22.981  0.00  0.00    +0.000 NA
ATOM    503  C2  A   B  59     -16.777  -0.863 -24.174  0.00  0.00    +0.000 A 
ATOM    504  N3  A   B  59     -17.551  -1.829 -24.665  0.00  0.00    +0.000 NA
ATOM    505  C4  A   B  59     -18.485  -2.191 -23.769  0.00  0.00    +0.000 A 
ATOM    506  H   A   B  59     -17.194   0.662 -20.684  0.00  0.00    +0.000 HD
ATOM    507  H   A   B  59     -18.521  -0.319 -20.254  0.00  0.00    +0.000 HD
ENDBRANCH 495 496
BRANCH 494 508
ATOM    508  O2' A   B  59     -18.460  -5.538 -26.482  0.00  0.00    +0.000 OA
ATOM    509  H   A   B  59     -19.287  -5.652 -26.977  0.00  0.00    +0.000 HD
ENDBRANCH 494 508
BRANCH 493 510
ATOM    510  O3' A   B  59     -19.263  -7.591 -24.786  0.00  0.00    +0.000 OA
BRANCH 510 511
ATOM    511  P   G   B  60     -18.340  -8.452 -23.783  0.00  0.00    +0.000 P 
ATOM    512  OP1 G   B  60     -18.274  -9.844 -24.283  0.00  0.00    +0.000 OA
BRANCH 511 513
ATOM    513  OP2 G   B  60     -18.791  -8.192 -22.391  0.00  0.00    +0.000 OA
ATOM    514  H   G   B  60     -19.668  -8.584 -22.257  0.00  0.00    +0.000 HD
ENDBRANCH 511 513
BRANCH 511 515
ATOM    515  O5' G   B  60     -16.898  -7.795 -23.970  0.00  0.00    +0.000 OA
BRANCH 515 516
ATOM    516  C5' G   B  60     -16.176  -7.938 -25.188  0.00  0.00    +0.000 C 
BRANCH 516 517
ATOM    517  C4' G   B  60     -15.053  -6.930 -25.284  0.00  0.00    +0.000 C 
ATOM    518  O4' G   B  60     -15.586  -5.592 -25.100  0.00  0.00    +0.000 OA
ATOM    519  C3' G   B  60     -13.966  -7.041 -24.234  0.00  0.00    +0.000 C 
ATOM    520  C2' G   B  60     -13.390  -5.634 -24.222  0.00  0.00    +0.000 C 
ATOM    521  C1' G   B  60     -14.649  -4.791 -24.413  0.00  0.00    +0.000 C 
BRANCH 521 522
ATOM    522  N9  G   B  60     -15.235  -4.368 -23.131  0.00  0.00    +0.000 N 
ATOM    523  C8  G   B  60     -16.299  -4.932 -22.473  0.00  0.00    +0.000 A 
ATOM    524  N7  G   B  60     -16.585  -4.329 -21.351  0.00  0.00    +0.000 NA
ATOM    525  C5  G   B  60     -15.655  -3.304 -21.265  0.00  0.00    +0.000 A 
ATOM    526  C6  G   B  60     -15.469  -2.315 -20.269  0.00  0.00    +0.000 A 
ATOM    527  O6  G   B  60     -16.114  -2.144 -19.224  0.00  0.00    +0.000 OA
ATOM    528  N1  G   B  60     -14.410  -1.473 -20.570  0.00  0.00    +0.000 NA
ATOM    529  C2  G   B  60     -13.630  -1.567 -21.695  0.00  0.00    +0.000 A 
ATOM    530  N2  G   B  60     -12.651  -0.658 -21.815  0.00  0.00    +0.000 N 
ATOM    531  N3  G   B  60     -13.790  -2.483 -22.635  0.00  0.00    +0.000 N 
ATOM    532  C4  G   B  60     -14.816  -3.314 -22.357  0.00  0.00    +0.000 A 
ATOM    533  H   G   B  60     -12.058  -0.674 -22.601  0.00  0.00    +0.000 HD
ATOM    534  H   G   B  60     -12.525   0.025 -21.117  0.00  0.00    +0.000 HD
ATOM    535  H   G   B  60     -13.228  -2.551 -23.441  0.00  0.00    +0.000 HD
ENDBRANCH 521 522
BRANCH 520 536
ATOM    536  O2' G   B  60     -12.514  -5.407 -25.317  0.00  0.00    +0.000 OA
ATOM    537  H   G   B  60     -12.983  -5.582 -26.148  0.00  0.00    +0.000 HD
ENDBRANCH 520 536
BRANCH 519 538
ATOM    538  O3' G   B  60     -13.001  -8.040 -24.548  0.00  0.00    +0.000 OA
BRANCH 538 539
ATOM    539  P   A   B  61     -12.241  -8.844 -23.386  0.00  0.00    +0.000 P 
ATOM    540  OP1 A   B  61     -11.422  -9.911 -24.010  0.00  0.00    +0.000 OA
BRANCH 539 541
ATOM    541  OP2 A   B  61     -13.234  -9.193 -22.339  0.00  0.00    +0.000 OA
ATOM    542  H   A   B  61     -13.852  -9.855 -22.687  0.00  0.00    +0.000 HD
ENDBRANCH 539 541
BRANCH 539 543
ATOM    543  O5' A   B  61     -11.242  -7.752 -22.775  0.00  0.00    +0.000 OA
BRANCH 543 544
ATOM    544  C5' A   B  61     -10.154  -7.247 -23.541  0.00  0.00    +0.000 C 
BRANCH 544 545
ATOM    545  C4' A   B  61      -9.578  -5.997 -22.912  0.00  0.00    +0.000 C 
ATOM    546  O4' A   B  61     -10.624  -5.002 -22.752  0.00  0.00    +0.000 OA
ATOM    547  C3' A   B  61      -9.009  -6.154 -21.515  0.00  0.00    +0.000 C 
ATOM    548  C2' A   B  61      -9.075  -4.733 -20.985  0.00  0.00    +0.000 C 
ATOM    549  C1' A   B  61     -10.402  -4.261 -21.567  0.00  0.00    +0.000 C 
BRANCH 549 550
ATOM    550  N9  A   B  61     -11.521  -4.500 -20.644  0.00  0.00    +0.000 N 
ATOM    551  C8  A   B  61     -12.434  -5.520 -20.674  0.00  0.00    +0.000 A 
ATOM    552  N7  A   B  61     -13.316  -5.467 -19.706  0.00  0.00    +0.000 NA
ATOM    553  C5  A   B  61     -12.959  -4.334 -18.992  0.00  0.00    +0.000 A 
ATOM    554  C6  A   B  61     -13.503  -3.724 -17.849  0.00  0.00    +0.000 A 
ATOM    555  N6  A   B  61     -14.564  -4.203 -17.193  0.00  0.00    +0.000 N 
ATOM    556  N1  A   B  61     -12.909  -2.603 -17.392  0.00  0.00    +0.000 NA
ATOM    557  C2  A   B  61     -11.843  -2.130 -18.049  0.00  0.00    +0.000 A 
ATOM    558  N3  A   B  61     -11.243  -2.612 -19.134  0.00  0.00    +0.000 NA
ATOM    559  C4  A   B  61     -11.857  -3.729 -19.560  0.00  0.00    +0.000 A 
ATOM    560  H   A   B  61     -15.012  -5.020 -17.511  0.00  0.00    +0.000 HD
ATOM    561  H   A   B  61     -14.898  -3.739 -16.392  0.00  0.00    +0.000 HD
ENDBRANCH 549 550
BRANCH 548 562
ATOM    562  O2' A   B  61      -8.033  -3.921 -21.502  0.00  0.00    +0.000 OA
ATOM    563  H   A   B  61      -8.066  -3.931 -22.471  0.00  0.00    +0.000 HD
ENDBRANCH 548 562
BRANCH 547 564
ATOM    564  O3' A   B  61      -7.695  -6.696 -21.512  0.00  0.00    +0.000 OA
BRANCH 564 565
ATOM    565  P   C   B  62      -7.211  -7.644 -20.324  0.00  0.00    +0.000 P 
ATOM    566  OP1 C   B  62      -5.892  -8.214 -20.684  0.00  0.00    +0.000 OA
BRANCH 565 567
ATOM    567  OP2 C   B  62      -8.332  -8.553 -19.965  0.00  0.00    +0.000 OA
ATOM    568  H   C   B  62      -8.480  -9.185 -20.686  0.00  0.00    +0.000 HD
ENDBRANCH 565 567
BRANCH 565 569
ATOM    569  O5' C   B  62      -6.998  -6.621 -19.116  0.00  0.00    +0.000 OA
BRANCH 569 570
ATOM    570  C5' C   B  62      -6.041  -5.575 -19.195  0.00  0.00    +0.000 C 
BRANCH 570 571
ATOM    571  C4' C   B  62      -6.296  -4.513 -18.153  0.00  0.00    +0.000 C 
ATOM    572  O4' C   B  62      -7.659  -4.024 -18.268  0.00  0.00    +0.000 OA
ATOM    573  C3' C   B  62      -6.191  -4.952 -16.708  0.00  0.00    +0.000 C 
ATOM    574  C2' C   B  62      -7.020  -3.896 -15.984  0.00  0.00    +0.000 C 
ATOM    575  C1' C   B  62      -8.152  -3.671 -16.988  0.00  0.00    +0.000 C 
BRANCH 575 576
ATOM    576  N1  C   B  62      -9.346  -4.495 -16.689  0.00  0.00    +0.000 N 
ATOM    577  C2  C   B  62     -10.223  -4.067 -15.687  0.00  0.00    +0.000 A 
ATOM    578  O2  C   B  62      -9.973  -3.012 -15.081  0.00  0.00    +0.000 OA
ATOM    579  N3  C   B  62     -11.317  -4.810 -15.399  0.00  0.00    +0.000 NA
ATOM    580  C4  C   B  62     -11.557  -5.937 -16.073  0.00  0.00    +0.000 A 
ATOM    581  N4  C   B  62     -12.647  -6.637 -15.752  0.00  0.00    +0.000 N 
ATOM    582  C5  C   B  62     -10.684  -6.392 -17.102  0.00  0.00    +0.000 A 
ATOM    583  C6  C   B  62      -9.607  -5.649 -17.375  0.00  0.00    +0.000 A 
ATOM    584  H   C   B  62     -12.854  -7.473 -16.229  0.00  0.00    +0.000 HD
ATOM    585  H   C   B  62     -13.245  -6.318 -15.038  0.00  0.00    +0.000 HD
ENDBRANCH 575 576
BRANCH 574 586
ATOM    586  O2' C   B  62      -6.307  -2.690 -15.817  0.00  0.00    +0.000 OA
ATOM    587  H   C   B  62      -6.008  -2.368 -16.682  0.00  0.00    +0.000 HD
ENDBRANCH 574 586
BRANCH 573 588
ATOM    588  O3' C   B  62      -4.842  -5.010 -16.254  0.00  0.00    +0.000 OA
BRANCH 588 589
ATOM    589  P   U   B  63      -4.373  -6.120 -15.206  0.00  0.00    +0.000 P 
ATOM    590  OP2 U   B  63      -5.048  -7.403 -15.536  0.00  0.00    +0.000 OA
BRANCH 589 591
ATOM    591  OP1 U   B  63      -2.897  -6.077 -15.113  0.00  0.00    +0.000 OA
ATOM    592  H   U   B  63      -2.511  -6.397 -15.944  0.00  0.00    +0.000 HD
ENDBRANCH 589 591
BRANCH 589 593
ATOM    593  O5' U   B  63      -4.968  -5.588 -13.824  0.00  0.00    +0.000 OA
BRANCH 593 594
ATOM    594  C5' U   B  63      -4.544  -4.354 -13.266  0.00  0.00    +0.000 C 
BRANCH 594 595
ATOM    595  C4' U   B  63      -5.477  -3.889 -12.178  0.00  0.00    +0.000 C 
ATOM    596  O4' U   B  63      -6.815  -3.721 -12.718  0.00  0.00    +0.000 OA
ATOM    597  C3' U   B  63      -5.668  -4.839 -11.014  0.00  0.00    +0.000 C 
ATOM    598  C2' U   B  63      -7.015  -4.386 -10.453  0.00  0.00    +0.000 C 
ATOM    599  C1' U   B  63      -7.775  -4.053 -11.735  0.00  0.00    +0.000 C 
BRANCH 599 600
ATOM    600  N1  U   B  63      -8.585  -5.194 -12.220  0.00  0.00    +0.000 N 
ATOM    601  C2  U   B  63      -9.815  -5.413 -11.621  0.00  0.00    +0.000 A 
ATOM    602  O2  U   B  63     -10.246  -4.714 -10.724  0.00  0.00    +0.000 OA
ATOM    603  N3  U   B  63     -10.523  -6.486 -12.113  0.00  0.00    +0.000 N 
ATOM    604  C4  U   B  63     -10.136  -7.342 -13.119  0.00  0.00    +0.000 A 
ATOM    605  O4  U   B  63     -10.884  -8.262 -13.451  0.00  0.00    +0.000 OA
ATOM    606  C5  U   B  63      -8.860  -7.049 -13.692  0.00  0.00    +0.000 A 
ATOM    607  C6  U   B  63      -8.148  -6.010 -13.232  0.00  0.00    +0.000 A 
ATOM    608  H   U   B  63     -11.400  -6.660 -11.701  0.00  0.00    +0.000 HD
ENDBRANCH 599 600
BRANCH 598 609
ATOM    609  O2' U   B  63      -6.894  -3.219  -9.672  0.00  0.00    +0.000 OA
ATOM    610  H   U   B  63      -6.482  -2.518 -10.200  0.00  0.00    +0.000 HD
ENDBRANCH 598 609
BRANCH 597 611
ATOM    611  O3' U   B  63      -4.610  -4.772 -10.067  0.00  0.00    +0.000 OA
BRANCH 611 612
ATOM    612  P   A   B  64      -4.118  -6.077  -9.296  0.00  0.00    +0.000 P 
ATOM    613  OP2 A   B  64      -4.036  -7.202 -10.263  0.00  0.00    +0.000 OA
BRANCH 612 614
ATOM    614  OP1 A   B  64      -2.931  -5.722  -8.479  0.00  0.00    +0.000 OA
ATOM    615  H   A   B  64      -2.180  -5.537  -9.064  0.00  0.00    +0.000 HD
ENDBRANCH 612 614
BRANCH 612 616
ATOM    616  O5' A   B  64      -5.325  -6.372  -8.302  0.00  0.00    +0.000 OA
BRANCH 616 617
ATOM    617  C5' A   B  64      -5.679  -5.455  -7.277  0.00  0.00    +0.000 C 
BRANCH 617 618
ATOM    618  C4' A   B  64      -7.037  -5.772  -6.701  0.00  0.00    +0.000 C 
ATOM    619  O4' A   B  64      -8.037  -5.716  -7.748  0.00  0.00    +0.000 OA
ATOM    620  C3' A   B  64      -7.198  -7.161  -6.111  0.00  0.00    +0.000 C 
ATOM    621  C2' A   B  64      -8.703  -7.361  -6.181  0.00  0.00    +0.000 C 
ATOM    622  C1' A   B  64      -9.031  -6.695  -7.513  0.00  0.00    +0.000 C 
BRANCH 622 623
ATOM    623  N9  A   B  64      -9.015  -7.659  -8.626  0.00  0.00    +0.000 N 
ATOM    624  C8  A   B  64      -8.047  -7.830  -9.581  0.00  0.00    +0.000 A 
ATOM    625  N7  A   B  64      -8.320  -8.773 -10.448  0.00  0.00    +0.000 NA
ATOM    626  C5  A   B  64      -9.552  -9.260 -10.037  0.00  0.00    +0.000 A 
ATOM    627  C6  A   B  64     -10.386 -10.272 -10.538  0.00  0.00    +0.000 A 
ATOM    628  N1  A   B  64     -11.545 -10.504  -9.892  0.00  0.00    +0.000 NA
ATOM    629  C2  A   B  64     -11.840  -9.765  -8.819  0.00  0.00    +0.000 A 
ATOM    630  N3  A   B  64     -11.139  -8.785  -8.252  0.00  0.00    +0.000 NA
ATOM    631  C4  A   B  64      -9.991  -8.582  -8.917  0.00  0.00    +0.000 A 
BRANCH 627 632
ATOM    632  N6  A   B  64     -10.087 -11.010 -11.611  0.00  0.00    +0.000 N 
ATOM    633  H   A   B  64      -9.244 -10.855 -12.096  0.00  0.00    +0.000 HD
ATOM    634  H   A   B  64     -10.709 -11.709 -11.917  0.00  0.00    +0.000 HD
ENDBRANCH 627 632
ENDBRANCH 622 623
BRANCH 621 635
ATOM    635  O2' A   B  64      -9.379  -6.669  -5.146  0.00  0.00    +0.000 OA
ATOM    636  H   A   B  64      -9.151  -5.727  -5.185  0.00  0.00    +0.000 HD
ENDBRANCH 621 635
BRANCH 620 637
ATOM    637  O3' A   B  64      -6.673  -7.261  -4.796  0.00  0.00    +0.000 OA
BRANCH 637 638
ATOM    638  P   C   B  65      -6.002  -8.612  -4.273  0.00  0.00    +0.000 P 
ATOM    639  OP2 C   B  65      -5.271  -9.257  -5.393  0.00  0.00    +0.000 OA
BRANCH 638 640
ATOM    640  OP1 C   B  65      -5.292  -8.315  -3.003  0.00  0.00    +0.000 OA
ATOM    641  H   C   B  65      -4.514  -7.765  -3.188  0.00  0.00    +0.000 HD
ENDBRANCH 638 640
BRANCH 638 642
ATOM    642  O5' C   B  65      -7.268  -9.513  -3.928  0.00  0.00    +0.000 OA
BRANCH 642 643
ATOM    643  C5' C   B  65      -8.244  -9.095  -2.984  0.00  0.00    +0.000 C 
BRANCH 643 644
ATOM    644  C4' C   B  65      -9.512  -9.898  -3.118  0.00  0.00    +0.000 C 
ATOM    645  O4' C   B  65     -10.037  -9.763  -4.469  0.00  0.00    +0.000 OA
ATOM    646  C3' C   B  65      -9.374 -11.394  -2.921  0.00  0.00    +0.000 C 
ATOM    647  C2' C   B  65     -10.600 -11.924  -3.660  0.00  0.00    +0.000 C 
ATOM    648  C1' C   B  65     -10.673 -10.965  -4.854  0.00  0.00    +0.000 C 
BRANCH 648 649
ATOM    649  N1  C   B  65      -9.998 -11.500  -6.056  0.00  0.00    +0.000 N 
ATOM    650  C2  C   B  65     -10.662 -12.458  -6.836  0.00  0.00    +0.000 A 
ATOM    651  O2  C   B  65     -11.794 -12.831  -6.495  0.00  0.00    +0.000 OA
ATOM    652  N3  C   B  65     -10.060 -12.954  -7.945  0.00  0.00    +0.000 NA
ATOM    653  C4  C   B  65      -8.840 -12.532  -8.288  0.00  0.00    +0.000 A 
ATOM    654  N4  C   B  65      -8.283 -13.049  -9.389  0.00  0.00    +0.000 N 
ATOM    655  C5  C   B  65      -8.142 -11.559  -7.518  0.00  0.00    +0.000 A 
ATOM    656  C6  C   B  65      -8.749 -11.073  -6.424  0.00  0.00    +0.000 A 
ATOM    657  H   C   B  65      -8.770 -13.722  -9.918  0.00  0.00    +0.000 HD
ATOM    658  H   C   B  65      -7.386 -12.757  -9.670  0.00  0.00    +0.000 HD
ENDBRANCH 648 649
BRANCH 647 659
ATOM    659  O2' C   B  65     -11.775 -11.794  -2.889  0.00  0.00    +0.000 OA
ATOM    660  H   C   B  65     -11.895 -10.865  -2.636  0.00  0.00    +0.000 HD
ENDBRANCH 647 659
BRANCH 646 661
ATOM    661  O3' C   B  65      -9.336 -11.766  -1.548  0.00  0.00    +0.000 OA
BRANCH 661 662
ATOM    662  P   A   B  66      -8.461 -13.007  -1.050  0.00  0.00    +0.000 P 
ATOM    663  OP2 A   B  66      -7.181 -13.002  -1.797  0.00  0.00    +0.000 OA
BRANCH 662 664
ATOM    664  OP1 A   B  66      -8.448 -13.002   0.436  0.00  0.00    +0.000 OA
ATOM    665  H   A   B  66      -7.936 -12.241   0.752  0.00  0.00    +0.000 HD
ENDBRANCH 662 664
BRANCH 662 666
ATOM    666  O5' A   B  66      -9.307 -14.266  -1.531  0.00  0.00    +0.000 OA
BRANCH 666 667
ATOM    667  C5' A   B  66     -10.618 -14.498  -1.033  0.00  0.00    +0.000 C 
BRANCH 667 668
ATOM    668  C4' A   B  66     -11.305 -15.578  -1.829  0.00  0.00    +0.000 C 
ATOM    669  O4' A   B  66     -11.477 -15.139  -3.201  0.00  0.00    +0.000 OA
ATOM    670  C3' A   B  66     -10.549 -16.886  -1.946  0.00  0.00    +0.000 C 
ATOM    671  C2' A   B  66     -11.139 -17.484  -3.213  0.00  0.00    +0.000 C 
ATOM    672  C1' A   B  66     -11.334 -16.239  -4.077  0.00  0.00    +0.000 C 
BRANCH 672 673
ATOM    673  N9  A   B  66     -10.190 -15.984  -4.967  0.00  0.00    +0.000 N 
ATOM    674  C8  A   B  66      -9.185 -15.069  -4.801  0.00  0.00    +0.000 A 
ATOM    675  N7  A   B  66      -8.304 -15.072  -5.770  0.00  0.00    +0.000 NA
ATOM    676  C5  A   B  66      -8.756 -16.054  -6.636  0.00  0.00    +0.000 A 
ATOM    677  C6  A   B  66      -8.265 -16.544  -7.857  0.00  0.00    +0.000 A 
ATOM    678  N1  A   B  66      -8.956 -17.529  -8.462  0.00  0.00    +0.000 NA
ATOM    679  C2  A   B  66     -10.066 -17.985  -7.877  0.00  0.00    +0.000 A 
ATOM    680  N3  A   B  66     -10.628 -17.604  -6.733  0.00  0.00    +0.000 NA
ATOM    681  C4  A   B  66      -9.916 -16.624  -6.154  0.00  0.00    +0.000 A 
BRANCH 677 682
ATOM    682  N6  A   B  66      -7.151 -16.082  -8.441  0.00  0.00    +0.000 N 
ATOM    683  H   A   B  66      -6.851 -16.462  -9.298  0.00  0.00    +0.000 HD
ATOM    684  H   A   B  66      -6.633 -15.363  -8.013  0.00  0.00    +0.000 HD
ENDBRANCH 677 682
ENDBRANCH 672 673
BRANCH 671 685
ATOM    685  O2' A   B  66     -12.403 -18.082  -2.978  0.00  0.00    +0.000 OA
ATOM    686  H   A   B  66     -13.004 -17.426  -2.592  0.00  0.00    +0.000 HD
ENDBRANCH 671 685
BRANCH 670 687
ATOM    687  O3' A   B  66     -10.705 -17.707  -0.796  0.00  0.00    +0.000 OA
BRANCH 687 688
ATOM    688  P   A   B  67      -9.524 -18.681  -0.317  0.00  0.00    +0.000 P 
ATOM    689  OP2 A   B  67      -8.229 -17.988  -0.538  0.00  0.00    +0.000 OA
BRANCH 688 690
ATOM    690  OP1 A   B  67      -9.868 -19.181   1.037  0.00  0.00    +0.000 OA
ATOM    691  H   A   B  67     -10.740 -19.605   1.013  0.00  0.00    +0.000 HD
ENDBRANCH 688 690
BRANCH 688 692
ATOM    692  O5' A   B  67      -9.619 -19.899  -1.337  0.00  0.00    +0.000 OA
BRANCH 692 693
ATOM    693  C5' A   B  67     -10.796 -20.688  -1.424  0.00  0.00    +0.000 C 
BRANCH 693 694
ATOM    694  C4' A   B  67     -10.743 -21.598  -2.625  0.00  0.00    +0.000 C 
ATOM    695  O4' A   B  67     -10.734 -20.806  -3.842  0.00  0.00    +0.000 OA
ATOM    696  C3' A   B  67      -9.509 -22.464  -2.738  0.00  0.00    +0.000 C 
ATOM    697  C2' A   B  67      -9.469 -22.772  -4.228  0.00  0.00    +0.000 C 
ATOM    698  C1' A   B  67      -9.944 -21.444  -4.823  0.00  0.00    +0.000 C 
BRANCH 698 699
ATOM    699  N9  A   B  67      -8.827 -20.556  -5.177  0.00  0.00    +0.000 N 
ATOM    700  C8  A   B  67      -8.316 -19.515  -4.449  0.00  0.00    +0.000 A 
ATOM    701  N7  A   B  67      -7.313 -18.907  -5.033  0.00  0.00    +0.000 NA
ATOM    702  C5  A   B  67      -7.150 -19.596  -6.227  0.00  0.00    +0.000 A 
ATOM    703  C6  A   B  67      -6.255 -19.446  -7.295  0.00  0.00    +0.000 A 
ATOM    704  N1  A   B  67      -6.364 -20.298  -8.329  0.00  0.00    +0.000 NA
ATOM    705  C2  A   B  67      -7.312 -21.238  -8.290  0.00  0.00    +0.000 A 
ATOM    706  N3  A   B  67      -8.212 -21.482  -7.344  0.00  0.00    +0.000 NA
ATOM    707  C4  A   B  67      -8.078 -20.613  -6.326  0.00  0.00    +0.000 A 
BRANCH 703 708
ATOM    708  N6  A   B  67      -5.303 -18.502  -7.331  0.00  0.00    +0.000 N 
ATOM    709  H   A   B  67      -4.700 -18.441  -8.107  0.00  0.00    +0.000 HD
ATOM    710  H   A   B  67      -5.207 -17.870  -6.582  0.00  0.00    +0.000 HD
ENDBRANCH 703 708
ENDBRANCH 698 699
BRANCH 697 711
ATOM    711  O2' A   B  67     -10.386 -23.793  -4.580  0.00  0.00    +0.000 OA
ATOM    712  H   A   B  67     -11.279 -23.537  -4.300  0.00  0.00    +0.000 HD
ENDBRANCH 697 711
BRANCH 696 713
ATOM    713  O3' A   B  67      -9.580 -23.620  -1.909  0.00  0.00    +0.000 OA
BRANCH 713 714
ATOM    714  P   A   B  68      -8.292 -24.144  -1.126  0.00  0.00    +0.000 P 
ATOM    715  OP2 A   B  68      -7.525 -22.958  -0.666  0.00  0.00    +0.000 OA
BRANCH 714 716
ATOM    716  OP1 A   B  68      -8.734 -25.161  -0.144  0.00  0.00    +0.000 OA
ATOM    717  H   A   B  68      -9.218 -25.865  -0.603  0.00  0.00    +0.000 HD
ENDBRANCH 714 716
BRANCH 714 718
ATOM    718  O5' A   B  68      -7.433 -24.872  -2.253  0.00  0.00    +0.000 OA
BRANCH 718 719
ATOM    719  C5' A   B  68      -7.957 -25.975  -2.965  0.00  0.00    +0.000 C 
BRANCH 719 720
ATOM    720  C4' A   B  68      -7.113 -26.279  -4.180  0.00  0.00    +0.000 C 
ATOM    721  O4' A   B  68      -7.192 -25.171  -5.116  0.00  0.00    +0.000 OA
ATOM    722  C3' A   B  68      -5.632 -26.443  -3.923  0.00  0.00    +0.000 C 
ATOM    723  C2' A   B  68      -5.025 -26.121  -5.280  0.00  0.00    +0.000 C 
ATOM    724  C1' A   B  68      -5.947 -24.996  -5.759  0.00  0.00    +0.000 C 
BRANCH 724 725
ATOM    725  N9  A   B  68      -5.430 -23.664  -5.411  0.00  0.00    +0.000 N 
ATOM    726  C8  A   B  68      -5.773 -22.879  -4.342  0.00  0.00    +0.000 A 
ATOM    727  N7  A   B  68      -5.132 -21.735  -4.301  0.00  0.00    +0.000 NA
ATOM    728  C5  A   B  68      -4.313 -21.769  -5.421  0.00  0.00    +0.000 A 
ATOM    729  C6  A   B  68      -3.387 -20.857  -5.943  0.00  0.00    +0.000 A 
ATOM    730  N6  A   B  68      -3.115 -19.674  -5.373  0.00  0.00    +0.000 N 
ATOM    731  N1  A   B  68      -2.740 -21.201  -7.071  0.00  0.00    +0.000 NA
ATOM    732  C2  A   B  68      -3.010 -22.382  -7.631  0.00  0.00    +0.000 A 
ATOM    733  N3  A   B  68      -3.859 -23.325  -7.236  0.00  0.00    +0.000 NA
ATOM    734  C4  A   B  68      -4.488 -22.952  -6.112  0.00  0.00    +0.000 A 
ATOM    735  H   A   B  68      -2.454 -19.070  -5.783  0.00  0.00    +0.000 HD
ATOM    736  H   A   B  68      -3.576 -19.409  -4.545  0.00  0.00    +0.000 HD
ENDBRANCH 724 725
BRANCH 723 737
ATOM    737  O2' A   B  68      -5.117 -27.215  -6.174  0.00  0.00    +0.000 OA
ATOM    738  H   A   B  68      -6.045 -27.484  -6.262  0.00  0.00    +0.000 HD
ENDBRANCH 723 737
BRANCH 722 739
ATOM    739  O3' A   B  68      -5.310 -27.741  -3.442  0.00  0.00    +0.000 OA
BRANCH 739 740
ATOM    740  P   A   B  69      -4.112 -27.981  -2.460  0.00  0.00    +0.000 P 
ATOM    741  OP2 A   B  69      -3.648 -26.651  -1.984  0.00  0.00    +0.000 OA
BRANCH 740 742
ATOM    742  OP1 A   B  69      -4.496 -29.006  -1.468  0.00  0.00    +0.000 OA
ATOM    743  H   A   B  69      -4.774 -29.813  -1.928  0.00  0.00    +0.000 HD
ENDBRANCH 740 742
BRANCH 740 744
ATOM    744  O5' A   B  69      -2.992 -28.603  -3.403  0.00  0.00    +0.000 OA
BRANCH 744 745
ATOM    745  C5' A   B  69      -1.651 -28.741  -2.952  0.00  0.00    +0.000 C 
BRANCH 745 746
ATOM    746  C4' A   B  69      -0.689 -28.480  -4.080  0.00  0.00    +0.000 C 
ATOM    747  O4' A   B  69      -1.213 -27.426  -4.908  0.00  0.00    +0.000 OA
ATOM    748  C3' A   B  69       0.691 -28.003  -3.644  0.00  0.00    +0.000 C 
ATOM    749  C2' A   B  69       1.141 -27.110  -4.780  0.00  0.00    +0.000 C 
ATOM    750  C1' A   B  69      -0.188 -26.555  -5.321  0.00  0.00    +0.000 C 
BRANCH 750 751
ATOM    751  N9  A   B  69      -0.520 -25.209  -4.855  0.00  0.00    +0.000 N 
ATOM    752  C8  A   B  69      -1.750 -24.776  -4.419  0.00  0.00    +0.000 A 
ATOM    753  N7  A   B  69      -1.782 -23.514  -4.071  0.00  0.00    +0.000 NA
ATOM    754  C5  A   B  69      -0.485 -23.084  -4.303  0.00  0.00    +0.000 A 
ATOM    755  C6  A   B  69       0.132 -21.839  -4.137  0.00  0.00    +0.000 A 
ATOM    756  N6  A   B  69      -0.513 -20.753  -3.674  0.00  0.00    +0.000 N 
ATOM    757  N1  A   B  69       1.436 -21.735  -4.458  0.00  0.00    +0.000 NA
ATOM    758  C2  A   B  69       2.067 -22.819  -4.920  0.00  0.00    +0.000 A 
ATOM    759  N3  A   B  69       1.594 -24.040  -5.119  0.00  0.00    +0.000 NA
ATOM    760  C4  A   B  69       0.297 -24.110  -4.789  0.00  0.00    +0.000 A 
ATOM    761  H   A   B  69      -0.032 -19.900  -3.576  0.00  0.00    +0.000 HD
ATOM    762  H   A   B  69      -1.466 -20.812  -3.433  0.00  0.00    +0.000 HD
ENDBRANCH 750 751
BRANCH 749 763
ATOM    763  O2' A   B  69       1.807 -27.824  -5.803  0.00  0.00    +0.000 OA
ATOM    764  H   A   B  69       1.223 -28.518  -6.146  0.00  0.00    +0.000 HD
ENDBRANCH 749 763
BRANCH 748 765
ATOM    765  O3' A   B  69       1.573 -29.116  -3.451  0.00  0.00    +0.000 OA
BRANCH 765 766
ATOM    766  P   A   B  70       2.406 -29.277  -2.245  0.00  0.00    +0.000 P 
ATOM    767  OP2 A   B  70       3.609 -28.389  -2.349  0.00  0.00    +0.000 OA
BRANCH 766 768
ATOM    768  OP1 A   B  70       1.533 -29.177  -1.052  0.00  0.00    +0.000 OA
ATOM    769  H   A   B  70       0.803 -29.811  -1.131  0.00  0.00    +0.000 HD
ENDBRANCH 766 768
BRANCH 766 770
ATOM    770  O5' A   B  70       2.856 -30.783  -2.385  0.00  0.00    +0.000 OA
BRANCH 770 771
ATOM    771  C5' A   B  70       4.201 -31.181  -2.145  0.00  0.00    +0.000 C 
BRANCH 771 772
ATOM    772  C4' A   B  70       4.676 -32.140  -3.222  0.00  0.00    +0.000 C 
ATOM    773  O4' A   B  70       3.995 -31.877  -4.458  0.00  0.00    +0.000 OA
ATOM    774  C3' A   B  70       6.170 -32.037  -3.508  0.00  0.00    +0.000 C 
ATOM    775  C2' A   B  70       6.255 -32.230  -5.019  0.00  0.00    +0.000 C 
ATOM    776  C1' A   B  70       4.911 -31.673  -5.509  0.00  0.00    +0.000 C 
BRANCH 776 777
ATOM    777  N9  A   B  70       4.889 -30.243  -5.830  0.00  0.00    +0.000 N 
ATOM    778  C8  A   B  70       3.783 -29.570  -6.289  0.00  0.00    +0.000 A 
ATOM    779  N7  A   B  70       3.976 -28.285  -6.474  0.00  0.00    +0.000 NA
ATOM    780  C5  A   B  70       5.300 -28.097  -6.114  0.00  0.00    +0.000 A 
ATOM    781  C6  A   B  70       6.110 -26.950  -6.089  0.00  0.00    +0.000 A 
ATOM    782  N1  A   B  70       7.391 -27.087  -5.689  0.00  0.00    +0.000 NA
ATOM    783  C2  A   B  70       7.811 -28.298  -5.335  0.00  0.00    +0.000 A 
ATOM    784  N3  A   B  70       7.145 -29.443  -5.319  0.00  0.00    +0.000 NA
ATOM    785  C4  A   B  70       5.881 -29.287  -5.718  0.00  0.00    +0.000 A 
BRANCH 781 786
ATOM    786  N6  A   B  70       5.668 -25.729  -6.447  0.00  0.00    +0.000 N 
ATOM    787  H   A   B  70       4.736 -25.610  -6.742  0.00  0.00    +0.000 HD
ATOM    788  H   A   B  70       6.277 -24.956  -6.414  0.00  0.00    +0.000 HD
ENDBRANCH 781 786
ENDBRANCH 776 777
BRANCH 775 789
ATOM    789  O2' A   B  70       6.368 -33.592  -5.375  0.00  0.00    +0.000 OA
ATOM    790  H   A   B  70       5.612 -34.083  -5.017  0.00  0.00    +0.000 HD
ENDBRANCH 775 789
BRANCH 774 791
ATOM    791  O3' A   B  70       6.899 -33.033  -2.769  0.00  0.00    +0.000 OA
BRANCH 791 792
ATOM    792  P   U   B  71       8.265 -32.714  -2.125  0.00  0.00    +0.000 P 
ATOM    793  OP2 U   B  71       8.263 -31.283  -1.717  0.00  0.00    +0.000 OA
BRANCH 792 794
ATOM    794  OP1 U   B  71       8.579 -33.751  -1.113  0.00  0.00    +0.000 OA
ATOM    795  H   U   B  71       8.541 -34.628  -1.526  0.00  0.00    +0.000 HD
ENDBRANCH 792 794
BRANCH 792 796
ATOM    796  O5' U   B  71       9.265 -32.902  -3.354  0.00  0.00    +0.000 OA
BRANCH 796 797
ATOM    797  C5' U   B  71      10.675 -33.011  -3.139  0.00  0.00    +0.000 C 
BRANCH 797 798
ATOM    798  C4' U   B  71      11.438 -32.194  -4.152  0.00  0.00    +0.000 C 
ATOM    799  O4' U   B  71      10.596 -31.101  -4.618  0.00  0.00    +0.000 OA
ATOM    800  C3' U   B  71      12.701 -31.515  -3.633  0.00  0.00    +0.000 C 
ATOM    801  C2' U   B  71      12.826 -30.291  -4.524  0.00  0.00    +0.000 C 
ATOM    802  C1' U   B  71      11.350 -29.924  -4.741  0.00  0.00    +0.000 C 
BRANCH 802 803
ATOM    803  N1  U   B  71      10.846 -28.945  -3.757  0.00  0.00    +0.000 N 
ATOM    804  C2  U   B  71      11.212 -27.625  -3.899  0.00  0.00    +0.000 A 
ATOM    805  O2  U   B  71      11.941 -27.229  -4.791  0.00  0.00    +0.000 OA
ATOM    806  N3  U   B  71      10.698 -26.771  -2.953  0.00  0.00    +0.000 N 
ATOM    807  C4  U   B  71       9.869 -27.102  -1.903  0.00  0.00    +0.000 A 
ATOM    808  O4  U   B  71       9.487 -26.220  -1.130  0.00  0.00    +0.000 OA
ATOM    809  C5  U   B  71       9.530 -28.490  -1.824  0.00  0.00    +0.000 A 
ATOM    810  C6  U   B  71      10.015 -29.340  -2.733  0.00  0.00    +0.000 A 
ATOM    811  H   U   B  71      10.948 -25.822  -3.034  0.00  0.00    +0.000 HD
ENDBRANCH 802 803
BRANCH 801 812
ATOM    812  O2' U   B  71      13.427 -30.589  -5.769  0.00  0.00    +0.000 OA
ATOM    813  H   U   B  71      12.919 -31.284  -6.215  0.00  0.00    +0.000 HD
ENDBRANCH 801 812
BRANCH 800 814
ATOM    814  O3' U   B  71      13.840 -32.364  -3.712  0.00  0.00    +0.000 OA
BRANCH 814 815
ATOM    815  P   C   B  72      15.135 -32.066  -2.893  0.00  0.00    +0.000 P 
ATOM    816  OP2 C   B  72      15.613 -30.715  -3.274  0.00  0.00    +0.000 OA
BRANCH 815 817
ATOM    817  OP1 C   B  72      14.840 -32.366  -1.477  0.00  0.00    +0.000 OA
ATOM    818  H   C   B  72      14.540 -33.285  -1.397  0.00  0.00    +0.000 HD
ENDBRANCH 815 817
BRANCH 815 819
ATOM    819  O5' C   B  72      16.207 -33.119  -3.414  0.00  0.00    +0.000 OA
BRANCH 819 820
ATOM    820  C5' C   B  72      16.009 -34.525  -3.235  0.00  0.00    +0.000 C 
BRANCH 820 821
ATOM    821  C4' C   B  72      16.931 -35.308  -4.136  0.00  0.00    +0.000 C 
ATOM    822  O4' C   B  72      16.659 -34.969  -5.520  0.00  0.00    +0.000 OA
ATOM    823  C3' C   B  72      18.409 -35.034  -3.960  0.00  0.00    +0.000 C 
ATOM    824  C2' C   B  72      18.989 -35.408  -5.319  0.00  0.00    +0.000 C 
ATOM    825  C1' C   B  72      17.867 -34.947  -6.256  0.00  0.00    +0.000 C 
BRANCH 825 826
ATOM    826  N1  C   B  72      18.077 -33.581  -6.778  0.00  0.00    +0.000 N 
ATOM    827  C2  C   B  72      18.999 -33.383  -7.811  0.00  0.00    +0.000 A 
ATOM    828  O2  C   B  72      19.613 -34.359  -8.268  0.00  0.00    +0.000 OA
ATOM    829  N3  C   B  72      19.200 -32.131  -8.288  0.00  0.00    +0.000 NA
ATOM    830  C4  C   B  72      18.523 -31.102  -7.776  0.00  0.00    +0.000 A 
ATOM    831  N4  C   B  72      18.757 -29.885  -8.275  0.00  0.00    +0.000 N 
ATOM    832  C5  C   B  72      17.578 -31.274  -6.727  0.00  0.00    +0.000 A 
ATOM    833  C6  C   B  72      17.386 -32.517  -6.262  0.00  0.00    +0.000 A 
ATOM    834  H   C   B  72      19.412 -29.768  -9.001  0.00  0.00    +0.000 HD
ATOM    835  H   C   B  72      18.275 -29.105  -7.917  0.00  0.00    +0.000 HD
ENDBRANCH 825 826
BRANCH 824 836
ATOM    836  O2' C   B  72      19.174 -36.801  -5.452  0.00  0.00    +0.000 OA
ATOM    837  H   C   B  72      18.331 -37.255  -5.297  0.00  0.00    +0.000 HD
ENDBRANCH 824 836
BRANCH 823 838
ATOM    838  O3' C   B  72      18.976 -35.786  -2.889  0.00  0.00    +0.000 OA
BRANCH 838 839
ATOM    839  P   U   B  73      20.051 -35.137  -1.910  0.00  0.00    +0.000 P 
ATOM    840  OP2 U   B  73      19.713 -33.700  -1.759  0.00  0.00    +0.000 OA
BRANCH 839 841
ATOM    841  OP1 U   B  73      20.159 -35.998  -0.710  0.00  0.00    +0.000 OA
ATOM    842  H   U   B  73      20.384 -36.902  -0.980  0.00  0.00    +0.000 HD
ENDBRANCH 839 841
BRANCH 839 843
ATOM    843  O5' U   B  73      21.421 -35.245  -2.719  0.00  0.00    +0.000 OA
BRANCH 843 844
ATOM    844  C5' U   B  73      22.038 -36.503  -2.947  0.00  0.00    +0.000 C 
BRANCH 844 845
ATOM    845  C4' U   B  73      23.174 -36.388  -3.933  0.00  0.00    +0.000 C 
ATOM    846  O4' U   B  73      22.681 -35.836  -5.183  0.00  0.00    +0.000 OA
ATOM    847  C3' U   B  73      24.310 -35.465  -3.540  0.00  0.00    +0.000 C 
ATOM    848  C2' U   B  73      24.933 -35.126  -4.889  0.00  0.00    +0.000 C 
ATOM    849  C1' U   B  73      23.688 -35.043  -5.780  0.00  0.00    +0.000 C 
BRANCH 849 850
ATOM    850  N1  U   B  73      23.192 -33.660  -5.922  0.00  0.00    +0.000 N 
ATOM    851  C2  U   B  73      23.823 -32.846  -6.849  0.00  0.00    +0.000 A 
ATOM    852  O2  U   B  73      24.753 -33.225  -7.538  0.00  0.00    +0.000 OA
ATOM    853  N3  U   B  73      23.327 -31.568  -6.940  0.00  0.00    +0.000 N 
ATOM    854  C4  U   B  73      22.283 -31.031  -6.214  0.00  0.00    +0.000 A 
ATOM    855  O4  U   B  73      21.952 -29.862  -6.406  0.00  0.00    +0.000 OA
ATOM    856  C5  U   B  73      21.681 -31.933  -5.279  0.00  0.00    +0.000 A 
ATOM    857  C6  U   B  73      22.144 -33.186  -5.169  0.00  0.00    +0.000 A 
ATOM    858  H   U   B  73      23.762 -30.972  -7.592  0.00  0.00    +0.000 HD
ENDBRANCH 849 850
BRANCH 848 859
ATOM    859  O2' U   B  73      25.774 -36.159  -5.360  0.00  0.00    +0.000 OA
ATOM    860  H   U   B  73      25.272 -36.988  -5.408  0.00  0.00    +0.000 HD
ENDBRANCH 848 859
BRANCH 847 861
ATOM    861  O3' U   B  73      25.229 -36.074  -2.639  0.00  0.00    +0.000 OA
BRANCH 861 862
ATOM    862  P   C   B  74      26.133 -35.179  -1.686  0.00  0.00    +0.000 P 
ATOM    863  OP2 C   B  74      25.341 -33.982  -1.291  0.00  0.00    +0.000 OA
BRANCH 862 864
ATOM    864  OP1 C   B  74      26.710 -36.054  -0.639  0.00  0.00    +0.000 OA
ATOM    865  H   C   B  74      27.193 -36.784  -1.058  0.00  0.00    +0.000 HD
ENDBRANCH 862 864
BRANCH 862 866
ATOM    866  O5' C   B  74      27.313 -34.696  -2.636  0.00  0.00    +0.000 OA
BRANCH 866 867
ATOM    867  C5' C   B  74      28.251 -35.619  -3.171  0.00  0.00    +0.000 C 
BRANCH 867 868
ATOM    868  C4' C   B  74      29.117 -34.978  -4.228  0.00  0.00    +0.000 C 
ATOM    869  O4' C   B  74      28.282 -34.440  -5.291  0.00  0.00    +0.000 OA
ATOM    870  C3' C   B  74      29.955 -33.800  -3.783  0.00  0.00    +0.000 C 
ATOM    871  C2' C   B  74      30.220 -33.074  -5.101  0.00  0.00    +0.000 C 
ATOM    872  C1' C   B  74      28.896 -33.291  -5.840  0.00  0.00    +0.000 C 
BRANCH 872 873
ATOM    873  N1  C   B  74      27.973 -32.143  -5.712  0.00  0.00    +0.000 N 
ATOM    874  C2  C   B  74      28.121 -31.067  -6.592  0.00  0.00    +0.000 A 
ATOM    875  O2  C   B  74      29.010 -31.111  -7.453  0.00  0.00    +0.000 OA
ATOM    876  N3  C   B  74      27.287 -30.004  -6.489  0.00  0.00    +0.000 NA
ATOM    877  C4  C   B  74      26.335 -29.990  -5.552  0.00  0.00    +0.000 A 
ATOM    878  N4  C   B  74      25.536 -28.924  -5.486  0.00  0.00    +0.000 N 
ATOM    879  C5  C   B  74      26.165 -31.072  -4.644  0.00  0.00    +0.000 A 
ATOM    880  C6  C   B  74      26.993 -32.117  -4.756  0.00  0.00    +0.000 A 
ATOM    881  H   C   B  74      25.658 -28.178  -6.117  0.00  0.00    +0.000 HD
ATOM    882  H   C   B  74      24.825 -28.883  -4.807  0.00  0.00    +0.000 HD
ENDBRANCH 872 873
BRANCH 871 883
ATOM    883  O2' C   B  74      31.268 -33.677  -5.831  0.00  0.00    +0.000 OA
ATOM    884  H   C   B  74      31.059 -34.612  -5.984  0.00  0.00    +0.000 HD
ENDBRANCH 871 883
BRANCH 870 885
ATOM    885  O3' C   B  74      31.151 -34.206  -3.115  0.00  0.00    +0.000 OA
BRANCH 885 886
ATOM    886  P   C   B  75      31.791 -33.294  -1.973  0.00  0.00    +0.000 P 
ATOM    887  OP1 C   B  75      32.872 -34.060  -1.311  0.00  0.00    +0.000 OA
BRANCH 886 888
ATOM    888  OP2 C   B  75      30.679 -32.739  -1.161  0.00  0.00    +0.000 OA
ATOM    889  H   C   B  75      30.059 -32.269  -1.740  0.00  0.00    +0.000 HD
ENDBRANCH 886 888
BRANCH 886 890
ATOM    890  O5' C   B  75      32.455 -32.097  -2.787  0.00  0.00    +0.000 OA
BRANCH 890 891
ATOM    891  C5' C   B  75      33.565 -32.316  -3.636  0.00  0.00    +0.000 C 
BRANCH 891 892
ATOM    892  C4' C   B  75      33.937 -31.063  -4.393  0.00  0.00    +0.000 C 
ATOM    893  O4' C   B  75      32.846 -30.674  -5.272  0.00  0.00    +0.000 OA
ATOM    894  C3' C   B  75      34.188 -29.832  -3.550  0.00  0.00    +0.000 C 
ATOM    895  C2' C   B  75      33.963 -28.699  -4.552  0.00  0.00    +0.000 C 
ATOM    896  C1' C   B  75      32.819 -29.267  -5.402  0.00  0.00    +0.000 C 
BRANCH 896 897
ATOM    897  N1  C   B  75      31.488 -28.778  -4.986  0.00  0.00    +0.000 N 
ATOM    898  C2  C   B  75      31.053 -27.539  -5.472  0.00  0.00    +0.000 A 
ATOM    899  O2  C   B  75      31.788 -26.896  -6.231  0.00  0.00    +0.000 OA
ATOM    900  N3  C   B  75      29.834 -27.069  -5.106  0.00  0.00    +0.000 NA
ATOM    901  C4  C   B  75      29.063 -27.788  -4.286  0.00  0.00    +0.000 A 
ATOM    902  N4  C   B  75      27.869 -27.289  -3.954  0.00  0.00    +0.000 N 
ATOM    903  C5  C   B  75      29.481 -29.051  -3.776  0.00  0.00    +0.000 A 
ATOM    904  C6  C   B  75      30.687 -29.504  -4.148  0.00  0.00    +0.000 A 
ATOM    905  H   C   B  75      27.584 -26.416  -4.309  0.00  0.00    +0.000 HD
ATOM    906  H   C   B  75      27.274 -27.794  -3.354  0.00  0.00    +0.000 HD
ENDBRANCH 896 897
BRANCH 895 907
ATOM    907  O2' C   B  75      35.095 -28.493  -5.377  0.00  0.00    +0.000 OA
ATOM    908  H   C   B  75      35.319 -29.320  -5.831  0.00  0.00    +0.000 HD
ENDBRANCH 895 907
BRANCH 894 909
ATOM    909  O3' C   B  75      35.496 -29.831  -2.986  0.00  0.00    +0.000 OA
BRANCH 909 910
ATOM    910  P   A   B  76      35.740 -29.295  -1.515  0.00  0.00    +0.000 P 
ATOM    911  OP1 A   B  76      37.050 -29.823  -1.052  0.00  0.00    +0.000 OA
BRANCH 910 912
ATOM    912  OP2 A   B  76      34.518 -29.578  -0.730  0.00  0.00    +0.000 OA
ATOM    913  H   A   B  76      33.753 -29.166  -1.162  0.00  0.00    +0.000 HD
ENDBRANCH 910 912
BRANCH 910 914
ATOM    914  O5' A   B  76      35.866 -27.718  -1.679  0.00  0.00    +0.000 OA
BRANCH 914 915
ATOM    915  C5' A   B  76      37.021 -27.169  -2.269  0.00  0.00    +0.000 C 
BRANCH 915 916
ATOM    916  C4' A   B  76      37.022 -25.658  -2.217  0.00  0.00    +0.000 C 
ATOM    917  O4' A   B  76      35.888 -25.162  -2.981  0.00  0.00    +0.000 OA
ATOM    918  C3' A   B  76      36.903 -25.073  -0.803  0.00  0.00    +0.000 C 
ATOM    919  C2' A   B  76      35.558 -24.365  -0.782  0.00  0.00    +0.000 C 
ATOM    920  C1' A   B  76      35.176 -24.209  -2.236  0.00  0.00    +0.000 C 
BRANCH 920 921
ATOM    921  N9  A   B  76      33.738 -24.429  -2.458  0.00  0.00    +0.000 N 
ATOM    922  C8  A   B  76      33.120 -25.609  -2.765  0.00  0.00    +0.000 A 
ATOM    923  N7  A   B  76      31.818 -25.511  -2.904  0.00  0.00    +0.000 NA
ATOM    924  C5  A   B  76      31.563 -24.175  -2.672  0.00  0.00    +0.000 A 
ATOM    925  C6  A   B  76      30.372 -23.427  -2.669  0.00  0.00    +0.000 A 
ATOM    926  N1  A   B  76      30.458 -22.110  -2.402  0.00  0.00    +0.000 NA
ATOM    927  C2  A   B  76      31.661 -21.589  -2.154  0.00  0.00    +0.000 A 
ATOM    928  N3  A   B  76      32.850 -22.188  -2.129  0.00  0.00    +0.000 NA
ATOM    929  C4  A   B  76      32.730 -23.494  -2.402  0.00  0.00    +0.000 A 
BRANCH 925 930
ATOM    930  N6  A   B  76      29.165 -23.956  -2.919  0.00  0.00    +0.000 N 
ATOM    931  H   A   B  76      29.080 -24.917  -3.116  0.00  0.00    +0.000 HD
ATOM    932  H   A   B  76      28.364 -23.384  -2.905  0.00  0.00    +0.000 HD
ENDBRANCH 925 930
ENDBRANCH 920 921
BRANCH 918 933
ATOM    933  O3' A   B  76      37.957 -24.172  -0.531  0.00  0.00    +0.000 OA
ATOM    934  H   A   B  76      37.948 -23.457  -1.186  0.00  0.00    +0.000 HD
ENDBRANCH 918 933
BRANCH 919 935
ATOM    935  O2' A   B  76      35.578 -23.085  -0.137  0.00  0.00    +0.000 OA
ATOM    936  H   A   B  76      36.197 -22.499  -0.600  0.00  0.00    +0.000 HD
ENDBRANCH 919 935
ENDBRANCH 915 916
ENDBRANCH 914 915
ENDBRANCH 910 914
ENDBRANCH 909 910
ENDBRANCH 894 909
ENDBRANCH 891 892
ENDBRANCH 890 891
ENDBRANCH 886 890
ENDBRANCH 885 886
ENDBRANCH 870 885
ENDBRANCH 867 868
ENDBRANCH 866 867
ENDBRANCH 862 866
ENDBRANCH 861 862
ENDBRANCH 847 861
ENDBRANCH 844 845
ENDBRANCH 843 844
ENDBRANCH 839 843
ENDBRANCH 838 839
ENDBRANCH 823 838
ENDBRANCH 820 821
ENDBRANCH 819 820
ENDBRANCH 815 819
ENDBRANCH 814 815
ENDBRANCH 800 814
ENDBRANCH 797 798
ENDBRANCH 796 797
ENDBRANCH 792 796
ENDBRANCH 791 792
ENDBRANCH 774 791
ENDBRANCH 771 772
ENDBRANCH 770 771
ENDBRANCH 766 770
ENDBRANCH 765 766
ENDBRANCH 748 765
ENDBRANCH 745 746
ENDBRANCH 744 745
ENDBRANCH 740 744
ENDBRANCH 739 740
ENDBRANCH 722 739
ENDBRANCH 719 720
ENDBRANCH 718 719
ENDBRANCH 714 718
ENDBRANCH 713 714
ENDBRANCH 696 713
ENDBRANCH 693 694
ENDBRANCH 692 693
ENDBRANCH 688 692
ENDBRANCH 687 688
ENDBRANCH 670 687
ENDBRANCH 667 668
ENDBRANCH 666 667
ENDBRANCH 662 666
ENDBRANCH 661 662
ENDBRANCH 646 661
ENDBRANCH 643 644
ENDBRANCH 642 643
ENDBRANCH 638 642
ENDBRANCH 637 638
ENDBRANCH 620 637
ENDBRANCH 617 618
ENDBRANCH 616 617
ENDBRANCH 612 616
ENDBRANCH 611 612
ENDBRANCH 597 611
ENDBRANCH 594 595
ENDBRANCH 593 594
ENDBRANCH 589 593
ENDBRANCH 588 589
ENDBRANCH 573 588
ENDBRANCH 570 571
ENDBRANCH 569 570
ENDBRANCH 565 569
ENDBRANCH 564 565
ENDBRANCH 547 564
ENDBRANCH 544 545
ENDBRANCH 543 544
ENDBRANCH 539 543
ENDBRANCH 538 539
ENDBRANCH 519 538
ENDBRANCH 516 517
ENDBRANCH 515 516
ENDBRANCH 511 515
ENDBRANCH 510 511
ENDBRANCH 493 510
ENDBRANCH 490 491
ENDBRANCH 489 490
ENDBRANCH 485 489
ENDBRANCH 484 485
ENDBRANCH 469 484
ENDBRANCH 466 467
ENDBRANCH 465 466
ENDBRANCH 461 465
ENDBRANCH 460 461
ENDBRANCH 443 460
ENDBRANCH 440 441
ENDBRANCH 439 440
ENDBRANCH 435 439
ENDBRANCH 434 435
ENDBRANCH 417 434
ENDBRANCH 414 415
ENDBRANCH 413 414
ENDBRANCH 409 413
ENDBRANCH 408 409
ENDBRANCH 391 408
ENDBRANCH 388 389
ENDBRANCH 387 388
ENDBRANCH 383 387
ENDBRANCH 382 383
ENDBRANCH 365 382
ENDBRANCH 362 363
ENDBRANCH 361 362
ENDBRANCH 357 361
ENDBRANCH 356 357
ENDBRANCH 339 356
ENDBRANCH 336 337
ENDBRANCH 335 336
ENDBRANCH 331 335
ENDBRANCH 330 331
ENDBRANCH 316 330
ENDBRANCH 313 314
ENDBRANCH 312 313
ENDBRANCH 308 312
ENDBRANCH 307 308
ENDBRANCH 293 307
ENDBRANCH 290 291
ENDBRANCH 289 290
ENDBRANCH 285 289
ENDBRANCH 284 285
ENDBRANCH 270 284
ENDBRANCH 267 268
ENDBRANCH 266 267
ENDBRANCH 262 266
ENDBRANCH 261 262
ENDBRANCH 247 261
ENDBRANCH 244 245
ENDBRANCH 243 244
ENDBRANCH 239 243
ENDBRANCH 238 239
ENDBRANCH 221 238
ENDBRANCH 218 219
ENDBRANCH 217 218
ENDBRANCH 213 217
ENDBRANCH 212 213
ENDBRANCH 198 212
ENDBRANCH 195 196
ENDBRANCH 194 195
ENDBRANCH 190 194
ENDBRANCH 189 190
ENDBRANCH 175 189
ENDBRANCH 172 173
ENDBRANCH 171 172
ENDBRANCH 167 171
ENDBRANCH 166 167
ENDBRANCH 152 166
ENDBRANCH 149 150
ENDBRANCH 148 149
ENDBRANCH 144 148
ENDBRANCH 143 144
ENDBRANCH 128 143
ENDBRANCH 125 126
ENDBRANCH 124 125
ENDBRANCH 120 124
ENDBRANCH 119 120
ENDBRANCH 102 119
ENDBRANCH  99 100
ENDBRANCH  98  99
ENDBRANCH  94  98
ENDBRANCH  93  94
ENDBRANCH  79  93
ENDBRANCH  76  77
ENDBRANCH  75  76
ENDBRANCH  71  75
ENDBRANCH  70  71
ENDBRANCH  56  70
ENDBRANCH  53  54
ENDBRANCH  52  53
ENDBRANCH  48  52
ENDBRANCH  47  48
ENDBRANCH  32  47
ENDBRANCH  29  30
ENDBRANCH  28  29
ENDBRANCH  24  28
ENDBRANCH  23  24
ENDBRANCH   9  23
ENDBRANCH   6   7
ENDBRANCH   5   6
ENDBRANCH   1   5
BRANCH   1 937
ATOM    937  O3' U   B  38     -30.327  27.913  19.935  0.00  0.00    +0.000 OA
BRANCH 937 940
ATOM    938  C4' U   B  38     -31.309  27.434  17.756  0.00  0.00    +0.000 C 
ATOM    939  O4' U   B  38     -30.705  27.695  16.466  0.00  0.00    +0.000 OA
ATOM    940  C3' U   B  38     -30.758  28.491  18.706  0.00  0.00    +0.000 C 
ATOM    941  C2' U   B  38     -29.589  29.148  17.969  0.00  0.00    +0.000 C 
ATOM    942  C1' U   B  38     -29.478  28.354  16.663  0.00  0.00    +0.000 C 
BRANCH 942 943
ATOM    943  N1  U   B  38     -29.194  29.224  15.510  0.00  0.00    +0.000 N 
ATOM    944  C2  U   B  38     -27.905  29.203  15.001  0.00  0.00    +0.000 A 
ATOM    945  O2  U   B  38     -27.026  28.483  15.446  0.00  0.00    +0.000 OA
ATOM    946  N3  U   B  38     -27.678  30.056  13.948  0.00  0.00    +0.000 N 
ATOM    947  C4  U   B  38     -28.591  30.910  13.368  0.00  0.00    +0.000 A 
ATOM    948  O4  U   B  38     -28.232  31.614  12.434  0.00  0.00    +0.000 OA
ATOM    949  C5  U   B  38     -29.903  30.877  13.954  0.00  0.00    +0.000 A 
ATOM    950  C6  U   B  38     -30.151  30.059  14.985  0.00  0.00    +0.000 A 
ATOM    951  H   U   B  38     -26.769  30.057  13.569  0.00  0.00    +0.000 HD
ENDBRANCH 942 943
BRANCH 941 952
ATOM    952  O2' U   B  38     -28.363  29.085  18.663  0.00  0.00    +0.000 OA
ATOM    953  H   U   B  38     -28.126  28.157  18.817  0.00  0.00    +0.000 HD
ENDBRANCH 941 952
BRANCH 938 954
ATOM    954  C5' U   B  38     -32.812  27.440  17.598  0.00  0.00    +0.000 C 
BRANCH 954 955
ATOM    955  O5' U   B  38     -33.242  28.641  16.970  0.00  0.00    +0.000 OA
BRANCH 955 956
ATOM    956  P   U   B  38     -34.757  28.807  16.499  0.00  0.00    +0.000 P 
ATOM    957  OP2 U   B  38     -34.863  30.115  15.800  0.00  0.00    +0.000 OA
BRANCH 956 958
ATOM    958  OP1 U   B  38     -35.639  28.515  17.652  0.00  0.00    +0.000 OA
ATOM    959  H   U   B  38     -36.566  28.611  17.383  0.00  0.00    +0.000 HD
ENDBRANCH 956 958
BRANCH 956 960
ATOM    960  O3' A   B  37     -34.967  27.649  15.432  0.00  0.00    +0.000 OA
BRANCH 960 963
ATOM    961  C4' A   B  37     -35.359  27.228  13.060  0.00  0.00    +0.000 C 
ATOM    962  O4' A   B  37     -34.484  26.936  11.939  0.00  0.00    +0.000 OA
ATOM    963  C3' A   B  37     -34.422  27.764  14.124  0.00  0.00    +0.000 C 
ATOM    964  C2' A   B  37     -33.174  26.917  13.917  0.00  0.00    +0.000 C 
ATOM    965  C1' A   B  37     -33.157  26.781  12.396  0.00  0.00    +0.000 C 
BRANCH 965 966
ATOM    966  N9  A   B  37     -32.320  27.803  11.752  0.00  0.00    +0.000 N 
ATOM    967  C8  A   B  37     -32.695  29.023  11.252  0.00  0.00    +0.000 A 
ATOM    968  N7  A   B  37     -31.703  29.708  10.732  0.00  0.00    +0.000 NA
ATOM    969  C5  A   B  37     -30.602  28.883  10.908  0.00  0.00    +0.000 A 
ATOM    970  C6  A   B  37     -29.245  29.027  10.570  0.00  0.00    +0.000 A 
ATOM    971  N1  A   B  37     -28.412  28.018  10.882  0.00  0.00    +0.000 NA
ATOM    972  C2  A   B  37     -28.911  26.937  11.492  0.00  0.00    +0.000 A 
ATOM    973  N3  A   B  37     -30.165  26.681  11.857  0.00  0.00    +0.000 NA
ATOM    974  C4  A   B  37     -30.969  27.706  11.532  0.00  0.00    +0.000 A 
BRANCH 970 975
ATOM    975  N6  A   B  37     -28.744  30.111   9.962  0.00  0.00    +0.000 N 
ATOM    976  H   A   B  37     -27.784  30.156   9.749  0.00  0.00    +0.000 HD
ATOM    977  H   A   B  37     -29.336  30.862   9.728  0.00  0.00    +0.000 HD
ENDBRANCH 970 975
ENDBRANCH 965 966
BRANCH 964 978
ATOM    978  O2' A   B  37     -33.308  25.635  14.493  0.00  0.00    +0.000 OA
ATOM    979  H   A   B  37     -34.093  25.197  14.129  0.00  0.00    +0.000 HD
ENDBRANCH 964 978
BRANCH 961 980
ATOM    980  C5' A   B  37     -36.456  28.168  12.612  0.00  0.00    +0.000 C 
BRANCH 980 981
ATOM    981  O5' A   B  37     -35.915  29.416  12.205  0.00  0.00    +0.000 OA
BRANCH 981 982
ATOM    982  P   A   B  37     -36.828  30.502  11.489  0.00  0.00    +0.000 P 
ATOM    983  OP2 A   B  37     -35.989  31.698  11.219  0.00  0.00    +0.000 OA
BRANCH 982 984
ATOM    984  OP1 A   B  37     -38.077  30.643  12.275  0.00  0.00    +0.000 OA
ATOM    985  H   A   B  37     -38.651  31.303  11.855  0.00  0.00    +0.000 HD
ENDBRANCH 982 984
BRANCH 982 986
ATOM    986  O3' U   B  36     -37.202  29.804  10.090  0.00  0.00    +0.000 OA
BRANCH 986 989
ATOM    987  C4' U   B  36     -36.934  29.901   7.669  0.00  0.00    +0.000 C 
ATOM    988  O4' U   B  36     -35.921  29.404   6.750  0.00  0.00    +0.000 OA
ATOM    989  C3' U   B  36     -36.268  29.816   9.024  0.00  0.00    +0.000 C 
ATOM    990  C2' U   B  36     -35.464  28.522   8.908  0.00  0.00    +0.000 C 
ATOM    991  C1' U   B  36     -34.996  28.591   7.448  0.00  0.00    +0.000 C 
BRANCH 991 992
ATOM    992  N1  U   B  36     -33.641  29.169   7.309  0.00  0.00    +0.000 N 
ATOM    993  C2  U   B  36     -32.562  28.337   7.560  0.00  0.00    +0.000 A 
ATOM    994  O2  U   B  36     -32.683  27.170   7.889  0.00  0.00    +0.000 OA
ATOM    995  N3  U   B  36     -31.328  28.925   7.415  0.00  0.00    +0.000 N 
ATOM    996  C4  U   B  36     -31.064  30.228   7.053  0.00  0.00    +0.000 A 
ATOM    997  O4  U   B  36     -29.894  30.604   6.966  0.00  0.00    +0.000 OA
ATOM    998  C5  U   B  36     -32.227  31.024   6.808  0.00  0.00    +0.000 A 
ATOM    999  C6  U   B  36     -33.445  30.479   6.941  0.00  0.00    +0.000 A 
ATOM   1000  H   U   B  36     -30.547  28.352   7.589  0.00  0.00    +0.000 HD
ENDBRANCH 991 992
BRANCH 9901001
ATOM   1001  O2' U   B  36     -36.271  27.383   9.083  0.00  0.00    +0.000 OA
ATOM   1002  H   U   B  36     -36.998  27.400   8.441  0.00  0.00    +0.000 HD
ENDBRANCH 9901001
BRANCH 9871003
ATOM   1003  C5' U   B  36     -37.395  31.277   7.241  0.00  0.00    +0.000 C 
BRANCH10031004
ATOM   1004  O5' U   B  36     -36.311  32.201   7.223  0.00  0.00    +0.000 OA
BRANCH10041005
ATOM   1005  P   U   B  36     -36.506  33.690   6.696  0.00  0.00    +0.000 P 
ATOM   1006  OP2 U   B  36     -35.202  34.394   6.821  0.00  0.00    +0.000 OA
BRANCH10051007
ATOM   1007  OP1 U   B  36     -37.713  34.254   7.348  0.00  0.00    +0.000 OA
ATOM   1008  H   U   B  36     -37.851  35.164   7.041  0.00  0.00    +0.000 HD
ENDBRANCH10051007
BRANCH10051009
ATOM   1009  O3' A   B  35     -36.852  33.507   5.146  0.00  0.00    +0.000 OA
BRANCH10091012
ATOM   1010  C4' A   B  35     -35.995  33.581   2.849  0.00  0.00    +0.000 C 
ATOM   1011  O4' A   B  35     -35.236  32.643   2.042  0.00  0.00    +0.000 OA
ATOM   1012  C3' A   B  35     -35.865  33.022   4.253  0.00  0.00    +0.000 C 
ATOM   1013  C2' A   B  35     -35.972  31.529   3.996  0.00  0.00    +0.000 C 
ATOM   1014  C1' A   B  35     -35.170  31.394   2.706  0.00  0.00    +0.000 C 
BRANCH10141015
ATOM   1015  N9  A   B  35     -33.764  31.058   2.980  0.00  0.00    +0.000 N 
ATOM   1016  C8  A   B  35     -32.651  31.858   2.894  0.00  0.00    +0.000 A 
ATOM   1017  N7  A   B  35     -31.538  31.238   3.220  0.00  0.00    +0.000 NA
ATOM   1018  C5  A   B  35     -31.950  29.953   3.545  0.00  0.00    +0.000 A 
ATOM   1019  C6  A   B  35     -31.257  28.812   3.975  0.00  0.00    +0.000 A 
ATOM   1020  N6  A   B  35     -29.933  28.776   4.165  0.00  0.00    +0.000 N 
ATOM   1021  N1  A   B  35     -31.971  27.695   4.213  0.00  0.00    +0.000 NA
ATOM   1022  C2  A   B  35     -33.290  27.726   4.030  0.00  0.00    +0.000 A 
ATOM   1023  N3  A   B  35     -34.057  28.735   3.626  0.00  0.00    +0.000 NA
ATOM   1024  C4  A   B  35     -33.316  29.831   3.400  0.00  0.00    +0.000 A 
ATOM   1025  H   A   B  35     -29.390  29.580   3.998  0.00  0.00    +0.000 HD
ATOM   1026  H   A   B  35     -29.502  27.946   4.472  0.00  0.00    +0.000 HD
ENDBRANCH10141015
BRANCH10131027
ATOM   1027  O2' A   B  35     -37.305  31.127   3.762  0.00  0.00    +0.000 OA
ATOM   1028  H   A   B  35     -37.671  31.635   3.021  0.00  0.00    +0.000 HD
ENDBRANCH10131027
BRANCH10101029
ATOM   1029  C5' A   B  35     -35.491  34.985   2.622  0.00  0.00    +0.000 C 
BRANCH10291030
ATOM   1030  O5' A   B  35     -34.069  35.052   2.703  0.00  0.00    +0.000 OA
BRANCH10301031
ATOM   1031  P   A   B  35     -33.277  36.286   2.074  0.00  0.00    +0.000 P 
ATOM   1032  OP1 A   B  35     -34.028  37.523   2.390  0.00  0.00    +0.000 OA
BRANCH10311033
ATOM   1033  OP2 A   B  35     -31.854  36.167   2.483  0.00  0.00    +0.000 OA
ATOM   1034  H   A   B  35     -31.348  36.907   2.113  0.00  0.00    +0.000 HD
ENDBRANCH10311033
BRANCH10311035
ATOM   1035  O3' A   B  34     -33.373  36.039   0.501  0.00  0.00    +0.000 OA
BRANCH10351038
ATOM   1036  C4' A   B  34     -32.147  35.348  -1.507  0.00  0.00    +0.000 C 
ATOM   1037  O4' A   B  34     -31.855  34.058  -2.101  0.00  0.00    +0.000 OA
ATOM   1038  C3' A   B  34     -32.630  34.999  -0.112  0.00  0.00    +0.000 C 
ATOM   1039  C2' A   B  34     -33.445  33.746  -0.373  0.00  0.00    +0.000 C 
ATOM   1040  C1' A   B  34     -32.589  33.052  -1.430  0.00  0.00    +0.000 C 
BRANCH10401041
ATOM   1041  N9  A   B  34     -31.650  32.096  -0.822  0.00  0.00    +0.000 N 
ATOM   1042  C8  A   B  34     -30.323  32.270  -0.529  0.00  0.00    +0.000 A 
ATOM   1043  N7  A   B  34     -29.766  31.214   0.019  0.00  0.00    +0.000 NA
ATOM   1044  C5  A   B  34     -30.798  30.290   0.092  0.00  0.00    +0.000 A 
ATOM   1045  C6  A   B  34     -30.861  28.974   0.573  0.00  0.00    +0.000 A 
ATOM   1046  N6  A   B  34     -29.816  28.328   1.103  0.00  0.00    +0.000 N 
ATOM   1047  N1  A   B  34     -32.043  28.332   0.500  0.00  0.00    +0.000 NA
ATOM   1048  C2  A   B  34     -33.090  28.975  -0.025  0.00  0.00    +0.000 A 
ATOM   1049  N3  A   B  34     -33.157  30.213  -0.514  0.00  0.00    +0.000 NA
ATOM   1050  C4  A   B  34     -31.963  30.822  -0.423  0.00  0.00    +0.000 A 
ATOM   1051  H   A   B  34     -28.942  28.776   1.167  0.00  0.00    +0.000 HD
ATOM   1052  H   A   B  34     -29.921  27.405   1.429  0.00  0.00    +0.000 HD
ENDBRANCH10401041
BRANCH10391053
ATOM   1053  O2' A   B  34     -34.711  34.045  -0.925  0.00  0.00    +0.000 OA
ATOM   1054  H   A   B  34     -34.596  34.562  -1.737  0.00  0.00    +0.000 HD
ENDBRANCH10391053
BRANCH10361055
ATOM   1055  C5' A   B  34     -30.932  36.240  -1.589  0.00  0.00    +0.000 C 
BRANCH10551056
ATOM   1056  O5' A   B  34     -29.844  35.704  -0.836  0.00  0.00    +0.000 OA
BRANCH10561057
ATOM   1057  P   A   B  34     -28.382  36.315  -0.977  0.00  0.00    +0.000 P 
ATOM   1058  OP1 A   B  34     -28.480  37.790  -0.877  0.00  0.00    +0.000 OA
BRANCH10571059
ATOM   1059  OP2 A   B  34     -27.489  35.574  -0.052  0.00  0.00    +0.000 OA
ATOM   1060  H   A   B  34     -26.588  35.928  -0.119  0.00  0.00    +0.000 HD
ENDBRANCH10571059
BRANCH10571061
ATOM   1061  O3' U   B  33     -27.983  35.947  -2.480  0.00  0.00    +0.000 OA
BRANCH10611064
ATOM   1062  C4' U   B  33     -26.515  34.567  -3.872  0.00  0.00    +0.000 C 
ATOM   1063  O4' U   B  33     -26.611  33.218  -4.400  0.00  0.00    +0.000 OA
ATOM   1064  C3' U   B  33     -27.598  34.621  -2.814  0.00  0.00    +0.000 C 
ATOM   1065  C2' U   B  33     -28.709  33.808  -3.462  0.00  0.00    +0.000 C 
ATOM   1066  C1' U   B  33     -27.903  32.703  -4.152  0.00  0.00    +0.000 C 
BRANCH10661067
ATOM   1067  N1  U   B  33     -27.781  31.493  -3.312  0.00  0.00    +0.000 N 
ATOM   1068  C2  U   B  33     -28.826  30.588  -3.353  0.00  0.00    +0.000 A 
ATOM   1069  O2  U   B  33     -29.817  30.751  -4.046  0.00  0.00    +0.000 OA
ATOM   1070  N3  U   B  33     -28.674  29.481  -2.550  0.00  0.00    +0.000 N 
ATOM   1071  C4  U   B  33     -27.605  29.196  -1.729  0.00  0.00    +0.000 A 
ATOM   1072  O4  U   B  33     -27.616  28.159  -1.065  0.00  0.00    +0.000 OA
ATOM   1073  C5  U   B  33     -26.567  30.178  -1.741  0.00  0.00    +0.000 A 
ATOM   1074  C6  U   B  33     -26.689  31.266  -2.512  0.00  0.00    +0.000 A 
ATOM   1075  H   U   B  33     -29.406  28.823  -2.564  0.00  0.00    +0.000 HD
ENDBRANCH10661067
BRANCH10651076
ATOM   1076  O2' U   B  33     -29.407  34.550  -4.441  0.00  0.00    +0.000 OA
ATOM   1077  H   U   B  33     -28.781  34.877  -5.106  0.00  0.00    +0.000 HD
ENDBRANCH10651076
BRANCH10621078
ATOM   1078  C5' U   B  33     -25.109  34.833  -3.388  0.00  0.00    +0.000 C 
BRANCH10781079
ATOM   1079  O5' U   B  33     -24.772  33.996  -2.287  0.00  0.00    +0.000 OA
BRANCH10791080
ATOM   1080  P   U   B  33     -23.273  33.898  -1.758  0.00  0.00    +0.000 P 
ATOM   1081  OP1 U   B  33     -22.774  35.270  -1.517  0.00  0.00    +0.000 OA
BRANCH10801082
ATOM   1082  OP2 U   B  33     -23.242  32.899  -0.661  0.00  0.00    +0.000 OA
ATOM   1083  H   U   B  33     -23.602  32.057  -0.981  0.00  0.00    +0.000 HD
ENDBRANCH10801082
BRANCH10801084
ATOM   1084  O3' A   B  32     -22.477  33.306  -3.007  0.00  0.00    +0.000 OA
BRANCH10841087
ATOM   1085  C4' A   B  32     -21.294  31.360  -3.891  0.00  0.00    +0.000 C 
ATOM   1086  O4' A   B  32     -21.715  30.175  -4.617  0.00  0.00    +0.000 OA
ATOM   1087  C3' A   B  32     -22.585  31.927  -3.339  0.00  0.00    +0.000 C 
ATOM   1088  C2' A   B  32     -23.562  31.651  -4.470  0.00  0.00    +0.000 C 
ATOM   1089  C1' A   B  32     -23.084  30.281  -4.948  0.00  0.00    +0.000 C 
BRANCH10891090
ATOM   1090  N9  A   B  32     -23.810  29.180  -4.296  0.00  0.00    +0.000 N 
ATOM   1091  C8  A   B  32     -23.420  28.428  -3.218  0.00  0.00    +0.000 A 
ATOM   1092  N7  A   B  32     -24.295  27.514  -2.873  0.00  0.00    +0.000 NA
ATOM   1093  C5  A   B  32     -25.330  27.674  -3.784  0.00  0.00    +0.000 A 
ATOM   1094  C6  A   B  32     -26.554  27.011  -3.956  0.00  0.00    +0.000 A 
ATOM   1095  N6  A   B  32     -26.964  26.004  -3.172  0.00  0.00    +0.000 N 
ATOM   1096  N1  A   B  32     -27.356  27.417  -4.957  0.00  0.00    +0.000 NA
ATOM   1097  C2  A   B  32     -26.949  28.425  -5.736  0.00  0.00    +0.000 A 
ATOM   1098  N3  A   B  32     -25.820  29.127  -5.677  0.00  0.00    +0.000 NA
ATOM   1099  C4  A   B  32     -25.042  28.699  -4.665  0.00  0.00    +0.000 A 
ATOM   1100  H   A   B  32     -27.834  25.574  -3.338  0.00  0.00    +0.000 HD
ATOM   1101  H   A   B  32     -26.395  25.695  -2.430  0.00  0.00    +0.000 HD
ENDBRANCH10891090
BRANCH10881102
ATOM   1102  O2' A   B  32     -23.425  32.585  -5.528  0.00  0.00    +0.000 OA
ATOM   1103  H   A   B  32     -22.509  32.579  -5.848  0.00  0.00    +0.000 HD
ENDBRANCH10881102
BRANCH10851104
ATOM   1104  C5' A   B  32     -20.248  30.988  -2.864  0.00  0.00    +0.000 C 
BRANCH11041105
ATOM   1105  O5' A   B  32     -20.781  30.107  -1.886  0.00  0.00    +0.000 OA
BRANCH11051106
ATOM   1106  P   A   B  32     -19.832  29.381  -0.832  0.00  0.00    +0.000 P 
ATOM   1107  OP1 A   B  32     -18.970  30.408  -0.199  0.00  0.00    +0.000 OA
BRANCH11061108
ATOM   1108  OP2 A   B  32     -20.678  28.502   0.016  0.00  0.00    +0.000 OA
ATOM   1109  H   A   B  32     -21.176  27.891  -0.549  0.00  0.00    +0.000 HD
ENDBRANCH11061108
BRANCH11061110
ATOM   1110  O3' A   B  31     -18.906  28.473  -1.741  0.00  0.00    +0.000 OA
BRANCH11101113
ATOM   1111  C4' A   B  31     -18.344  26.208  -2.465  0.00  0.00    +0.000 C 
ATOM   1112  O4' A   B  31     -18.887  25.313  -3.473  0.00  0.00    +0.000 OA
ATOM   1113  C3' A   B  31     -19.412  27.268  -2.304  0.00  0.00    +0.000 C 
ATOM   1114  C2' A   B  31     -19.916  27.431  -3.729  0.00  0.00    +0.000 C 
ATOM   1115  C1' A   B  31     -19.873  25.988  -4.228  0.00  0.00    +0.000 C 
BRANCH11151116
ATOM   1116  N9  A   B  31     -21.158  25.295  -4.049  0.00  0.00    +0.000 N 
ATOM   1117  C8  A   B  31     -21.522  24.429  -3.049  0.00  0.00    +0.000 A 
ATOM   1118  N7  A   B  31     -22.746  23.971  -3.173  0.00  0.00    +0.000 NA
ATOM   1119  C5  A   B  31     -23.218  24.576  -4.326  0.00  0.00    +0.000 A 
ATOM   1120  C6  A   B  31     -24.448  24.504  -4.999  0.00  0.00    +0.000 A 
ATOM   1121  N1  A   B  31     -24.595  25.235  -6.121  0.00  0.00    +0.000 NA
ATOM   1122  C2  A   B  31     -23.571  25.985  -6.539  0.00  0.00    +0.000 A 
ATOM   1123  N3  A   B  31     -22.362  26.134  -5.994  0.00  0.00    +0.000 NA
ATOM   1124  C4  A   B  31     -22.249  25.394  -4.876  0.00  0.00    +0.000 A 
BRANCH11201125
ATOM   1125  N6  A   B  31     -25.476  23.753  -4.579  0.00  0.00    +0.000 N 
ATOM   1126  H   A   B  31     -26.317  23.740  -5.090  0.00  0.00    +0.000 HD
ATOM   1127  H   A   B  31     -25.390  23.215  -3.759  0.00  0.00    +0.000 HD
ENDBRANCH11201125
ENDBRANCH11151116
BRANCH11141128
ATOM   1128  O2' A   B  31     -19.035  28.218  -4.513  0.00  0.00    +0.000 OA
ATOM   1129  H   A   B  31     -18.149  27.824  -4.498  0.00  0.00    +0.000 HD
ENDBRANCH11141128
BRANCH11111130
ATOM   1130  C5' A   B  31     -17.999  25.428  -1.217  0.00  0.00    +0.000 C 
BRANCH11301131
ATOM   1131  O5' A   B  31     -19.155  24.817  -0.662  0.00  0.00    +0.000 OA
BRANCH11311132
ATOM   1132  P   A   B  31     -19.031  23.723   0.487  0.00  0.00    +0.000 P 
ATOM   1133  OP2 A   B  31     -20.398  23.247   0.815  0.00  0.00    +0.000 OA
BRANCH11321134
ATOM   1134  OP1 A   B  31     -18.165  24.273   1.557  0.00  0.00    +0.000 OA
ATOM   1135  H   A   B  31     -17.312  24.536   1.179  0.00  0.00    +0.000 HD
ENDBRANCH11321134
BRANCH11321136
ATOM   1136  O3' A   B  30     -18.242  22.539  -0.207  0.00  0.00    +0.000 OA
BRANCH11361139
ATOM   1137  C4' A   B  30     -18.314  20.279  -1.130  0.00  0.00    +0.000 C 
ATOM   1138  O4' A   B  30     -18.720  19.733  -2.414  0.00  0.00    +0.000 OA
ATOM   1139  C3' A   B  30     -18.900  21.676  -1.126  0.00  0.00    +0.000 C 
ATOM   1140  C2' A   B  30     -18.730  22.094  -2.578  0.00  0.00    +0.000 C 
ATOM   1141  C1' A   B  30     -19.031  20.783  -3.303  0.00  0.00    +0.000 C 
BRANCH11411142
ATOM   1142  N9  A   B  30     -20.447  20.668  -3.687  0.00  0.00    +0.000 N 
ATOM   1143  C8  A   B  30     -21.443  19.966  -3.056  0.00  0.00    +0.000 A 
ATOM   1144  N7  A   B  30     -22.607  20.058  -3.653  0.00  0.00    +0.000 NA
ATOM   1145  C5  A   B  30     -22.364  20.872  -4.747  0.00  0.00    +0.000 A 
ATOM   1146  C6  A   B  30     -23.188  21.350  -5.774  0.00  0.00    +0.000 A 
ATOM   1147  N1  A   B  30     -22.632  22.145  -6.710  0.00  0.00    +0.000 NA
ATOM   1148  C2  A   B  30     -21.333  22.432  -6.615  0.00  0.00    +0.000 A 
ATOM   1149  N3  A   B  30     -20.448  22.041  -5.697  0.00  0.00    +0.000 NA
ATOM   1150  C4  A   B  30     -21.034  21.255  -4.779  0.00  0.00    +0.000 A 
BRANCH11461151
ATOM   1151  N6  A   B  30     -24.491  21.063  -5.864  0.00  0.00    +0.000 N 
ATOM   1152  H   A   B  30     -25.025  21.426  -6.607  0.00  0.00    +0.000 HD
ATOM   1153  H   A   B  30     -24.917  20.489  -5.187  0.00  0.00    +0.000 HD
ENDBRANCH11461151
ENDBRANCH11411142
BRANCH11401154
ATOM   1154  O2' A   B  30     -17.400  22.486  -2.861  0.00  0.00    +0.000 OA
ATOM   1155  H   A   B  30     -16.794  21.764  -2.631  0.00  0.00    +0.000 HD
ENDBRANCH11401154
BRANCH11371156
ATOM   1156  C5' A   B  30     -18.776  19.369  -0.015  0.00  0.00    +0.000 C 
BRANCH11561157
ATOM   1157  O5' A   B  30     -20.189  19.215  -0.038  0.00  0.00    +0.000 OA
BRANCH11571158
ATOM   1158  P   A   B  30     -20.900  18.069   0.811  0.00  0.00    +0.000 P 
ATOM   1159  OP2 A   B  30     -22.356  18.143   0.546  0.00  0.00    +0.000 OA
BRANCH11581160
ATOM   1160  OP1 A   B  30     -20.399  18.150   2.204  0.00  0.00    +0.000 OA
ATOM   1161  H   A   B  30     -19.431  18.086   2.204  0.00  0.00    +0.000 HD
ENDBRANCH11581160
BRANCH11581162
ATOM   1162  O3' A   B  29     -20.340  16.729   0.179  0.00  0.00    +0.000 OA
BRANCH11621165
ATOM   1163  C4' A   B  29     -20.787  14.770  -1.214  0.00  0.00    +0.000 C 
ATOM   1164  O4' A   B  29     -20.809  14.546  -2.649  0.00  0.00    +0.000 OA
ATOM   1165  C3' A   B  29     -20.813  16.279  -1.083  0.00  0.00    +0.000 C 
ATOM   1166  C2' A   B  29     -19.936  16.710  -2.250  0.00  0.00    +0.000 C 
ATOM   1167  C1' A   B  29     -20.347  15.699  -3.318  0.00  0.00    +0.000 C 
BRANCH11671168
ATOM   1168  N9  A   B  29     -21.425  16.208  -4.181  0.00  0.00    +0.000 N 
ATOM   1169  C8  A   B  29     -22.765  15.930  -4.116  0.00  0.00    +0.000 A 
ATOM   1170  N7  A   B  29     -23.471  16.541  -5.038  0.00  0.00    +0.000 NA
ATOM   1171  C5  A   B  29     -22.533  17.271  -5.754  0.00  0.00    +0.000 A 
ATOM   1172  C6  A   B  29     -22.640  18.128  -6.856  0.00  0.00    +0.000 A 
ATOM   1173  N1  A   B  29     -21.513  18.696  -7.326  0.00  0.00    +0.000 NA
ATOM   1174  C2  A   B  29     -20.355  18.413  -6.724  0.00  0.00    +0.000 A 
ATOM   1175  N3  A   B  29     -20.121  17.619  -5.678  0.00  0.00    +0.000 NA
ATOM   1176  C4  A   B  29     -21.266  17.072  -5.236  0.00  0.00    +0.000 A 
BRANCH11721177
ATOM   1177  N6  A   B  29     -23.801  18.413  -7.457  0.00  0.00    +0.000 N 
ATOM   1178  H   A   B  29     -23.819  19.023  -8.229  0.00  0.00    +0.000 HD
ATOM   1179  H   A   B  29     -24.638  18.013  -7.127  0.00  0.00    +0.000 HD
ENDBRANCH11721177
ENDBRANCH11671168
BRANCH11661180
ATOM   1180  O2' A   B  29     -18.561  16.546  -1.961  0.00  0.00    +0.000 OA
ATOM   1181  H   A   B  29     -18.390  15.624  -1.714  0.00  0.00    +0.000 HD
ENDBRANCH11661180
BRANCH11631182
ATOM   1182  C5' A   B  29     -21.932  14.031  -0.561  0.00  0.00    +0.000 C 
BRANCH11821183
ATOM   1183  O5' A   B  29     -23.184  14.495  -1.049  0.00  0.00    +0.000 OA
BRANCH11831184
ATOM   1184  P   A   B  29     -24.520  13.674  -0.773  0.00  0.00    +0.000 P 
ATOM   1185  OP2 A   B  29     -25.638  14.383  -1.439  0.00  0.00    +0.000 OA
BRANCH11841186
ATOM   1186  OP1 A   B  29     -24.592  13.389   0.678  0.00  0.00    +0.000 OA
ATOM   1187  H   A   B  29     -25.400  12.888   0.869  0.00  0.00    +0.000 HD
ENDBRANCH11841186
BRANCH11841188
ATOM   1188  O3' U   B  28     -24.262  12.298  -1.523  0.00  0.00    +0.000 OA
BRANCH11881191
ATOM   1189  C4' U   B  28     -24.861  10.879  -3.420  0.00  0.00    +0.000 C 
ATOM   1190  O4' U   B  28     -24.448  10.840  -4.816  0.00  0.00    +0.000 OA
ATOM   1191  C3' U   B  28     -24.371  12.229  -2.938  0.00  0.00    +0.000 C 
ATOM   1192  C2' U   B  28     -23.038  12.358  -3.662  0.00  0.00    +0.000 C 
ATOM   1193  C1' U   B  28     -23.376  11.737  -5.022  0.00  0.00    +0.000 C 
BRANCH11931194
ATOM   1194  N1  U   B  28     -23.781  12.751  -6.024  0.00  0.00    +0.000 N 
ATOM   1195  C2  U   B  28     -22.775  13.422  -6.692  0.00  0.00    +0.000 A 
ATOM   1196  O2  U   B  28     -21.593  13.213  -6.488  0.00  0.00    +0.000 OA
ATOM   1197  N3  U   B  28     -23.201  14.353  -7.611  0.00  0.00    +0.000 N 
ATOM   1198  C4  U   B  28     -24.503  14.672  -7.921  0.00  0.00    +0.000 A 
ATOM   1199  O4  U   B  28     -24.728  15.532  -8.767  0.00  0.00    +0.000 OA
ATOM   1200  C5  U   B  28     -25.485  13.937  -7.188  0.00  0.00    +0.000 A 
ATOM   1201  C6  U   B  28     -25.100  13.025  -6.287  0.00  0.00    +0.000 A 
ATOM   1202  H   U   B  28     -22.500  14.843  -8.098  0.00  0.00    +0.000 HD
ENDBRANCH11931194
BRANCH11921203
ATOM   1203  O2' U   B  28     -22.027  11.588  -3.045  0.00  0.00    +0.000 OA
ATOM   1204  H   U   B  28     -22.311  10.662  -2.996  0.00  0.00    +0.000 HD
ENDBRANCH11921203
BRANCH11891205
ATOM   1205  C5' U   B  28     -26.349  10.645  -3.318  0.00  0.00    +0.000 C 
BRANCH12051206
ATOM   1206  O5' U   B  28     -27.077  11.681  -3.959  0.00  0.00    +0.000 OA
BRANCH12061207
ATOM   1207  P   U   B  28     -28.623  11.509  -4.295  0.00  0.00    +0.000 P 
ATOM   1208  OP2 U   B  28     -29.058  12.694  -5.073  0.00  0.00    +0.000 OA
BRANCH12071209
ATOM   1209  OP1 U   B  28     -29.329  11.148  -3.043  0.00  0.00    +0.000 OA
ATOM   1210  H   U   B  28     -30.275  11.038  -3.226  0.00  0.00    +0.000 HD
ENDBRANCH12071209
BRANCH12071211
ATOM   1211  O3' U   B  27     -28.640  10.241  -5.251  0.00  0.00    +0.000 OA
BRANCH12111214
ATOM   1212  C4' U   B  27     -29.073   9.440  -7.511  0.00  0.00    +0.000 C 
ATOM   1213  O4' U   B  27     -28.264   9.340  -8.717  0.00  0.00    +0.000 OA
ATOM   1214  C3' U   B  27     -28.279  10.369  -6.618  0.00  0.00    +0.000 C 
ATOM   1215  C2' U   B  27     -26.845   9.951  -6.916  0.00  0.00    +0.000 C 
ATOM   1216  C1' U   B  27     -26.920   9.670  -8.422  0.00  0.00    +0.000 C 
BRANCH12161217
ATOM   1217  N1  U   B  27     -26.522  10.837  -9.244  0.00  0.00    +0.000 N 
ATOM   1218  C2  U   B  27     -25.168  11.053  -9.435  0.00  0.00    +0.000 A 
ATOM   1219  O2  U   B  27     -24.307  10.336  -8.959  0.00  0.00    +0.000 OA
ATOM   1220  N3  U   B  27     -24.853  12.147 -10.209  0.00  0.00    +0.000 N 
ATOM   1221  C4  U   B  27     -25.736  13.026 -10.798  0.00  0.00    +0.000 A 
ATOM   1222  O4  U   B  27     -25.299  13.962 -11.465  0.00  0.00    +0.000 OA
ATOM   1223  C5  U   B  27     -27.115  12.735 -10.554  0.00  0.00    +0.000 A 
ATOM   1224  C6  U   B  27     -27.450  11.679  -9.805  0.00  0.00    +0.000 A 
ATOM   1225  H   U   B  27     -23.895  12.320 -10.358  0.00  0.00    +0.000 HD
ENDBRANCH12161217
BRANCH12151226
ATOM   1226  O2' U   B  27     -26.496   8.759  -6.244  0.00  0.00    +0.000 OA
ATOM   1227  H   U   B  27     -27.122   8.058  -6.483  0.00  0.00    +0.000 HD
ENDBRANCH12151226
BRANCH12121228
ATOM   1228  C5' U   B  27     -30.469   9.905  -7.865  0.00  0.00    +0.000 C 
BRANCH12281229
ATOM   1229  O5' U   B  27     -30.449  11.200  -8.445  0.00  0.00    +0.000 OA
BRANCH12291230
ATOM   1230  P   U   B  27     -31.735  11.793  -9.172  0.00  0.00    +0.000 P 
ATOM   1231  OP2 U   B  27     -31.363  13.100  -9.768  0.00  0.00    +0.000 OA
BRANCH12301232
ATOM   1232  OP1 U   B  27     -32.876  11.715  -8.227  0.00  0.00    +0.000 OA
ATOM   1233  H   U   B  27     -33.672  12.072  -8.651  0.00  0.00    +0.000 HD
ENDBRANCH12301232
BRANCH12301234
ATOM   1234  O3' U   B  26     -31.995  10.753 -10.343  0.00  0.00    +0.000 OA
BRANCH12341237
ATOM   1235  C4' U   B  26     -31.917  10.325 -12.746  0.00  0.00    +0.000 C 
ATOM   1236  O4' U   B  26     -30.861   9.918 -13.662  0.00  0.00    +0.000 OA
ATOM   1237  C3' U   B  26     -31.171  10.757 -11.502  0.00  0.00    +0.000 C 
ATOM   1238  C2' U   B  26     -30.033   9.745 -11.445  0.00  0.00    +0.000 C 
ATOM   1239  C1' U   B  26     -29.696   9.588 -12.932  0.00  0.00    +0.000 C 
BRANCH12391240
ATOM   1240  N1  U   B  26     -28.593  10.480 -13.362  0.00  0.00    +0.000 N 
ATOM   1241  C2  U   B  26     -27.298  10.061 -13.109  0.00  0.00    +0.000 A 
ATOM   1242  O2  U   B  26     -27.036   9.007 -12.556  0.00  0.00    +0.000 OA
ATOM   1243  N3  U   B  26     -26.310  10.923 -13.528  0.00  0.00    +0.000 N 
ATOM   1244  C4  U   B  26     -26.483  12.135 -14.160  0.00  0.00    +0.000 A 
ATOM   1245  O4  U   B  26     -25.494  12.797 -14.475  0.00  0.00    +0.000 OA
ATOM   1246  C5  U   B  26     -27.848  12.497 -14.385  0.00  0.00    +0.000 A 
ATOM   1247  C6  U   B  26     -28.831  11.679 -13.988  0.00  0.00    +0.000 A 
ATOM   1248  H   U   B  26     -25.381  10.644 -13.358  0.00  0.00    +0.000 HD
ENDBRANCH12391240
BRANCH12381249
ATOM   1249  O2' U   B  26     -30.466   8.497 -10.938  0.00  0.00    +0.000 OA
ATOM   1250  H   U   B  26     -31.203   8.167 -11.476  0.00  0.00    +0.000 HD
ENDBRANCH12381249
BRANCH12351251
ATOM   1251  C5' U   B  26     -32.784  11.380 -13.396  0.00  0.00    +0.000 C 
BRANCH12511252
ATOM   1252  O5' U   B  26     -32.031  12.538 -13.727  0.00  0.00    +0.000 OA
BRANCH12521253
ATOM   1253  P   U   B  26     -32.607  13.640 -14.721  0.00  0.00    +0.000 P 
ATOM   1254  OP2 U   B  26     -31.550  14.662 -14.943  0.00  0.00    +0.000 OA
BRANCH12531255
ATOM   1255  OP1 U   B  26     -33.939  14.056 -14.221  0.00  0.00    +0.000 OA
ATOM   1256  H   U   B  26     -34.311  14.729 -14.812  0.00  0.00    +0.000 HD
ENDBRANCH12531255
BRANCH12531257
ATOM   1257  O3' U   B  25     -32.816  12.823 -16.063  0.00  0.00    +0.000 OA
BRANCH12571260
ATOM   1258  C4' U   B  25     -32.059  12.449 -18.356  0.00  0.00    +0.000 C 
ATOM   1259  O4' U   B  25     -30.998  11.648 -18.948  0.00  0.00    +0.000 OA
ATOM   1260  C3' U   B  25     -31.702  12.496 -16.886  0.00  0.00    +0.000 C 
ATOM   1261  C2' U   B  25     -31.156  11.096 -16.645  0.00  0.00    +0.000 C 
ATOM   1262  C1' U   B  25     -30.401  10.837 -17.954  0.00  0.00    +0.000 C 
BRANCH12621263
ATOM   1263  N1  U   B  25     -28.962  11.181 -17.857  0.00  0.00    +0.000 N 
ATOM   1264  C2  U   B  25     -28.116  10.231 -17.314  0.00  0.00    +0.000 A 
ATOM   1265  O2  U   B  25     -28.501   9.143 -16.923  0.00  0.00    +0.000 OA
ATOM   1266  N3  U   B  25     -26.790  10.597 -17.244  0.00  0.00    +0.000 N 
ATOM   1267  C4  U   B  25     -26.239  11.790 -17.653  0.00  0.00    +0.000 A 
ATOM   1268  O4  U   B  25     -25.027  11.972 -17.524  0.00  0.00    +0.000 OA
ATOM   1269  C5  U   B  25     -27.178  12.719 -18.201  0.00  0.00    +0.000 A 
ATOM   1270  C6  U   B  25     -28.475  12.391 -18.282  0.00  0.00    +0.000 A 
ATOM   1271  H   U   B  25     -26.171   9.935 -16.861  0.00  0.00    +0.000 HD
ENDBRANCH12621263
BRANCH12611272
ATOM   1272  O2' U   B  25     -32.192  10.141 -16.520  0.00  0.00    +0.000 OA
ATOM   1273  H   U   B  25     -32.752  10.166 -17.312  0.00  0.00    +0.000 HD
ENDBRANCH12611272
BRANCH12581274
ATOM   1274  C5' U   B  25     -32.144  13.784 -19.057  0.00  0.00    +0.000 C 
BRANCH12741275
ATOM   1275  O5' U   B  25     -30.947  14.534 -18.892  0.00  0.00    +0.000 OA
BRANCH12751276
ATOM   1276  P   U   B  25     -30.631  15.793 -19.817  0.00  0.00    +0.000 P 
ATOM   1277  OP1 U   B  25     -31.795  16.710 -19.753  0.00  0.00    +0.000 OA
BRANCH12761278
ATOM   1278  OP2 U   B  25     -29.274  16.294 -19.476  0.00  0.00    +0.000 OA
ATOM   1279  H   U   B  25     -29.064  17.062 -20.030  0.00  0.00    +0.000 HD
ENDBRANCH12761278
BRANCH12761280
ATOM   1280  O3' U   B  24     -30.582  15.151 -21.258  0.00  0.00    +0.000 OA
BRANCH12801283
ATOM   1281  C4' U   B  24     -29.160  14.650 -23.175  0.00  0.00    +0.000 C 
ATOM   1282  O4' U   B  24     -28.313  13.528 -23.535  0.00  0.00    +0.000 OA
ATOM   1283  C3' U   B  24     -29.422  14.453 -21.699  0.00  0.00    +0.000 C 
ATOM   1284  C2' U   B  24     -29.539  12.940 -21.590  0.00  0.00    +0.000 C 
ATOM   1285  C1' U   B  24     -28.487  12.480 -22.601  0.00  0.00    +0.000 C 
BRANCH12851286
ATOM   1286  N1  U   B  24     -27.178  12.179 -21.977  0.00  0.00    +0.000 N 
ATOM   1287  C2  U   B  24     -27.025  10.945 -21.370  0.00  0.00    +0.000 A 
ATOM   1288  O2  U   B  24     -27.913  10.113 -21.330  0.00  0.00    +0.000 OA
ATOM   1289  N3  U   B  24     -25.790  10.718 -20.809  0.00  0.00    +0.000 N 
ATOM   1290  C4  U   B  24     -24.716  11.578 -20.793  0.00  0.00    +0.000 A 
ATOM   1291  O4  U   B  24     -23.669  11.230 -20.246  0.00  0.00    +0.000 OA
ATOM   1292  C5  U   B  24     -24.950  12.829 -21.441  0.00  0.00    +0.000 A 
ATOM   1293  C6  U   B  24     -26.145  13.081 -21.997  0.00  0.00    +0.000 A 
ATOM   1294  H   U   B  24     -25.660   9.846 -20.371  0.00  0.00    +0.000 HD
ENDBRANCH12851286
BRANCH12841295
ATOM   1295  O2' U   B  24     -30.808  12.480 -22.008  0.00  0.00    +0.000 OA
ATOM   1296  H   U   B  24     -30.978  12.779 -22.915  0.00  0.00    +0.000 HD
ENDBRANCH12841295
BRANCH12811297
ATOM   1297  C5' U   B  24     -28.483  15.943 -23.552  0.00  0.00    +0.000 C 
BRANCH12971298
ATOM   1298  O5' U   B  24     -27.268  16.122 -22.826  0.00  0.00    +0.000 OA
BRANCH12981299
ATOM   1299  P   U   B  24     -26.286  17.328 -23.152  0.00  0.00    +0.000 P 
ATOM   1300  OP1 U   B  24     -27.075  18.579 -23.121  0.00  0.00    +0.000 OA
BRANCH12991301
ATOM   1301  OP2 U   B  24     -25.082  17.194 -22.290  0.00  0.00    +0.000 OA
ATOM   1302  H   U   B  24     -24.469  17.923 -22.475  0.00  0.00    +0.000 HD
ENDBRANCH12991301
BRANCH12991303
ATOM   1303  O3' U   B  23     -25.865  17.063 -24.634  0.00  0.00    +0.000 OA
BRANCH13031306
ATOM   1304  C4' U   B  23     -24.072  16.327 -26.118  0.00  0.00    +0.000 C 
ATOM   1305  O4' U   B  23     -23.633  15.035 -26.597  0.00  0.00    +0.000 OA
ATOM   1306  C3' U   B  23     -24.965  16.008 -24.944  0.00  0.00    +0.000 C 
ATOM   1307  C2' U   B  23     -25.660  14.739 -25.404  0.00  0.00    +0.000 C 
ATOM   1308  C1' U   B  23     -24.529  14.035 -26.149  0.00  0.00    +0.000 C 
BRANCH13081309
ATOM   1309  N1  U   B  23     -23.785  13.082 -25.295  0.00  0.00    +0.000 N 
ATOM   1310  C2  U   B  23     -24.395  11.878 -24.978  0.00  0.00    +0.000 A 
ATOM   1311  O2  U   B  23     -25.512  11.577 -25.363  0.00  0.00    +0.000 OA
ATOM   1312  N3  U   B  23     -23.653  11.040 -24.186  0.00  0.00    +0.000 N 
ATOM   1313  C4  U   B  23     -22.387  11.268 -23.691  0.00  0.00    +0.000 A 
ATOM   1314  O4  U   B  23     -21.852  10.413 -22.992  0.00  0.00    +0.000 OA
ATOM   1315  C5  U   B  23     -21.820  12.524 -24.065  0.00  0.00    +0.000 A 
ATOM   1316  C6  U   B  23     -22.526  13.371 -24.839  0.00  0.00    +0.000 A 
ATOM   1317  H   U   B  23     -24.070  10.182 -23.944  0.00  0.00    +0.000 HD
ENDBRANCH13081309
BRANCH13071318
ATOM   1318  O2' U   B  23     -26.713  15.009 -26.299  0.00  0.00    +0.000 OA
ATOM   1319  H   U   B  23     -26.374  15.513 -27.055  0.00  0.00    +0.000 HD
ENDBRANCH13071318
BRANCH13041320
ATOM   1320  C5' U   B  23     -22.878  17.191 -25.825  0.00  0.00    +0.000 C 
BRANCH13201321
ATOM   1321  O5' U   B  23     -22.109  16.659 -24.758  0.00  0.00    +0.000 OA
BRANCH13211322
ATOM   1322  P   U   B  23     -20.915  17.491 -24.110  0.00  0.00    +0.000 P 
ATOM   1323  OP2 U   B  23     -19.944  17.799 -25.179  0.00  0.00    +0.000 OA
BRANCH13221324
ATOM   1324  OP1 U   B  23     -20.453  16.767 -22.889  0.00  0.00    +0.000 OA
ATOM   1325  H   U   B  23     -20.039  15.929 -23.147  0.00  0.00    +0.000 HD
ENDBRANCH13221324
BRANCH13221326
ATOM   1326  O3' C   B  22     -21.595  18.872 -23.643  0.00  0.00    +0.000 OA
BRANCH13261329
ATOM   1327  C4' C   B  22     -20.808  21.068 -22.938  0.00  0.00    +0.000 C 
ATOM   1328  O4' C   B  22     -20.784  22.373 -23.575  0.00  0.00    +0.000 OA
ATOM   1329  C3' C   B  22     -21.075  20.114 -24.081  0.00  0.00    +0.000 C 
ATOM   1330  C2' C   B  22     -22.053  20.908 -24.940  0.00  0.00    +0.000 C 
ATOM   1331  C1' C   B  22     -21.495  22.324 -24.795  0.00  0.00    +0.000 C 
BRANCH13311332
ATOM   1332  N1  C   B  22     -20.574  22.691 -25.895  0.00  0.00    +0.000 N 
ATOM   1333  C2  C   B  22     -21.121  23.158 -27.090  0.00  0.00    +0.000 A 
ATOM   1334  O2  C   B  22     -22.355  23.261 -27.189  0.00  0.00    +0.000 OA
ATOM   1335  N3  C   B  22     -20.295  23.487 -28.110  0.00  0.00    +0.000 NA
ATOM   1336  C4  C   B  22     -18.974  23.365 -27.970  0.00  0.00    +0.000 A 
ATOM   1337  N4  C   B  22     -18.200  23.700 -29.001  0.00  0.00    +0.000 N 
ATOM   1338  C5  C   B  22     -18.393  22.889 -26.765  0.00  0.00    +0.000 A 
ATOM   1339  C6  C   B  22     -19.220  22.566 -25.764  0.00  0.00    +0.000 A 
ATOM   1340  H   C   B  22     -18.606  24.030 -29.835  0.00  0.00    +0.000 HD
ATOM   1341  H   C   B  22     -17.222  23.618 -28.929  0.00  0.00    +0.000 HD
ENDBRANCH13311332
BRANCH13301342
ATOM   1342  O2' C   B  22     -23.365  20.878 -24.417  0.00  0.00    +0.000 OA
ATOM   1343  H   C   B  22     -23.357  21.208 -23.505  0.00  0.00    +0.000 HD
ENDBRANCH13301342
BRANCH13271344
ATOM   1344  C5' C   B  22     -19.524  20.846 -22.176  0.00  0.00    +0.000 C 
BRANCH13441345
ATOM   1345  O5' C   B  22     -18.394  20.893 -23.032  0.00  0.00    +0.000 OA
BRANCH13451346
ATOM   1346  P   C   B  22     -16.917  21.008 -22.453  0.00  0.00    +0.000 P 
ATOM   1347  OP2 C   B  22     -15.983  21.124 -23.603  0.00  0.00    +0.000 OA
BRANCH13461348
ATOM   1348  OP1 C   B  22     -16.716  19.924 -21.453  0.00  0.00    +0.000 OA
ATOM   1349  H   C   B  22     -16.694  19.066 -21.906  0.00  0.00    +0.000 HD
ENDBRANCH13461348
BRANCH13461350
ATOM   1350  O3' A   B  21     -16.948  22.424 -21.654  0.00  0.00    +0.000 OA
BRANCH13501353
ATOM   1351  C4' A   B  21     -16.150  24.735 -21.630  0.00  0.00    +0.000 C 
ATOM   1352  O4' A   B  21     -16.621  25.962 -22.247  0.00  0.00    +0.000 OA
ATOM   1353  C3' A   B  21     -16.900  23.647 -22.374  0.00  0.00    +0.000 C 
ATOM   1354  C2' A   B  21     -18.268  24.286 -22.572  0.00  0.00    +0.000 C 
ATOM   1355  C1' A   B  21     -17.880  25.737 -22.852  0.00  0.00    +0.000 C 
BRANCH13551356
ATOM   1356  N9  A   B  21     -17.773  26.009 -24.291  0.00  0.00    +0.000 N 
ATOM   1357  C8  A   B  21     -16.642  26.077 -25.062  0.00  0.00    +0.000 A 
ATOM   1358  N7  A   B  21     -16.885  26.338 -26.326  0.00  0.00    +0.000 NA
ATOM   1359  C5  A   B  21     -18.264  26.446 -26.386  0.00  0.00    +0.000 A 
ATOM   1360  C6  A   B  21     -19.146  26.710 -27.440  0.00  0.00    +0.000 A 
ATOM   1361  N1  A   B  21     -20.466  26.749 -27.167  0.00  0.00    +0.000 NA
ATOM   1362  C2  A   B  21     -20.865  26.535 -25.907  0.00  0.00    +0.000 A 
ATOM   1363  N3  A   B  21     -20.131  26.279 -24.828  0.00  0.00    +0.000 NA
ATOM   1364  C4  A   B  21     -18.823  26.245 -25.140  0.00  0.00    +0.000 A 
BRANCH13601365
ATOM   1365  N6  A   B  21     -18.748  26.923 -28.699  0.00  0.00    +0.000 N 
ATOM   1366  H   A   B  21     -19.413  27.104 -29.402  0.00  0.00    +0.000 HD
ATOM   1367  H   A   B  21     -17.790  26.898 -28.923  0.00  0.00    +0.000 HD
ENDBRANCH13601365
ENDBRANCH13551356
BRANCH13541368
ATOM   1368  O2' A   B  21     -19.049  24.241 -21.391  0.00  0.00    +0.000 OA
ATOM   1369  H   A   B  21     -18.565  24.668 -20.667  0.00  0.00    +0.000 HD
ENDBRANCH13541368
BRANCH13511370
ATOM   1370  C5' A   B  21     -14.641  24.668 -21.700  0.00  0.00    +0.000 C 
BRANCH13701371
ATOM   1371  O5' A   B  21     -14.186  24.718 -23.047  0.00  0.00    +0.000 OA
BRANCH13711372
ATOM   1372  P   A   B  21     -12.641  24.935 -23.372  0.00  0.00    +0.000 P 
ATOM   1373  OP2 A   B  21     -12.491  24.970 -24.850  0.00  0.00    +0.000 OA
BRANCH13721374
ATOM   1374  OP1 A   B  21     -11.859  23.952 -22.579  0.00  0.00    +0.000 OA
ATOM   1375  H   A   B  21     -12.023  23.059 -22.919  0.00  0.00    +0.000 HD
ENDBRANCH13721374
BRANCH13721376
ATOM   1376  O3' A   B  20     -12.337  26.392 -22.773  0.00  0.00    +0.000 OA
BRANCH13761379
ATOM   1377  C4' A   B  20     -11.902  28.756 -23.237  0.00  0.00    +0.000 C 
ATOM   1378  O4' A   B  20     -12.754  29.882 -23.581  0.00  0.00    +0.000 OA
ATOM   1379  C3' A   B  20     -12.796  27.553 -23.452  0.00  0.00    +0.000 C 
ATOM   1380  C2' A   B  20     -14.134  28.064 -22.940  0.00  0.00    +0.000 C 
ATOM   1381  C1' A   B  20     -14.112  29.502 -23.448  0.00  0.00    +0.000 C 
BRANCH13811382
ATOM   1382  N9  A   B  20     -14.773  29.626 -24.756  0.00  0.00    +0.000 N 
ATOM   1383  C8  A   B  20     -14.203  29.701 -26.002  0.00  0.00    +0.000 A 
ATOM   1384  N7  A   B  20     -15.079  29.802 -26.975  0.00  0.00    +0.000 NA
ATOM   1385  C5  A   B  20     -16.303  29.791 -26.323  0.00  0.00    +0.000 A 
ATOM   1386  C6  A   B  20     -17.623  29.865 -26.787  0.00  0.00    +0.000 A 
ATOM   1387  N1  A   B  20     -18.616  29.827 -25.876  0.00  0.00    +0.000 NA
ATOM   1388  C2  A   B  20     -18.297  29.718 -24.582  0.00  0.00    +0.000 A 
ATOM   1389  N3  A   B  20     -17.092  29.644 -24.020  0.00  0.00    +0.000 NA
ATOM   1390  C4  A   B  20     -16.129  29.684 -24.956  0.00  0.00    +0.000 A 
BRANCH13861391
ATOM   1391  N6  A   B  20     -17.945  29.971 -28.083  0.00  0.00    +0.000 N 
ATOM   1392  H   A   B  20     -17.236  30.001 -28.766  0.00  0.00    +0.000 HD
ATOM   1393  H   A   B  20     -18.891  30.019 -28.353  0.00  0.00    +0.000 HD
ENDBRANCH13861391
ENDBRANCH13811382
BRANCH13801394
ATOM   1394  O2' A   B  20     -14.191  28.076 -21.528  0.00  0.00    +0.000 OA
ATOM   1395  H   A   B  20     -13.458  28.607 -21.179  0.00  0.00    +0.000 HD
ENDBRANCH13801394
BRANCH13771396
ATOM   1396  C5' A   B  20     -10.635  28.799 -24.058  0.00  0.00    +0.000 C 
BRANCH13961397
ATOM   1397  O5' A   B  20     -10.920  28.712 -25.451  0.00  0.00    +0.000 OA
BRANCH13971398
ATOM   1398  P   A   B  20      -9.778  28.994 -26.528  0.00  0.00    +0.000 P 
ATOM   1399  OP2 A   B  20     -10.378  28.834 -27.878  0.00  0.00    +0.000 OA
BRANCH13981400
ATOM   1400  OP1 A   B  20      -8.586  28.192 -26.153  0.00  0.00    +0.000 OA
ATOM   1401  H   A   B  20      -7.876  28.348 -26.796  0.00  0.00    +0.000 HD
ENDBRANCH13981400
BRANCH13981402
ATOM   1402  O3' A   B  19      -9.433  30.543 -26.291  0.00  0.00    +0.000 OA
BRANCH14021405
ATOM   1403  C4' A   B  19      -9.592  32.811 -27.183  0.00  0.00    +0.000 C 
ATOM   1404  O4' A   B  19     -10.609  33.848 -27.109  0.00  0.00    +0.000 OA
ATOM   1405  C3' A   B  19     -10.321  31.558 -26.743  0.00  0.00    +0.000 C 
ATOM   1406  C2' A   B  19     -11.238  32.091 -25.651  0.00  0.00    +0.000 C 
ATOM   1407  C1' A   B  19     -11.648  33.435 -26.243  0.00  0.00    +0.000 C 
BRANCH14071408
ATOM   1408  N9  A   B  19     -12.894  33.345 -27.019  0.00  0.00    +0.000 N 
ATOM   1409  C8  A   B  19     -13.048  33.308 -28.382  0.00  0.00    +0.000 A 
ATOM   1410  N7  A   B  19     -14.297  33.228 -28.768  0.00  0.00    +0.000 NA
ATOM   1411  C5  A   B  19     -15.015  33.209 -27.580  0.00  0.00    +0.000 A 
ATOM   1412  C6  A   B  19     -16.387  33.132 -27.304  0.00  0.00    +0.000 A 
ATOM   1413  N1  A   B  19     -16.773  33.135 -26.012  0.00  0.00    +0.000 NA
ATOM   1414  C2  A   B  19     -15.831  33.208 -25.062  0.00  0.00    +0.000 A 
ATOM   1415  N3  A   B  19     -14.508  33.286 -25.195  0.00  0.00    +0.000 NA
ATOM   1416  C4  A   B  19     -14.162  33.280 -26.494  0.00  0.00    +0.000 A 
BRANCH14121417
ATOM   1417  N6  A   B  19     -17.329  33.058 -28.253  0.00  0.00    +0.000 N 
ATOM   1418  H   A   B  19     -17.071  33.054 -29.203  0.00  0.00    +0.000 HD
ATOM   1419  H   A   B  19     -18.279  33.007 -28.000  0.00  0.00    +0.000 HD
ENDBRANCH14121417
ENDBRANCH14071408
BRANCH14061420
ATOM   1420  O2' A   B  19     -10.545  32.315 -24.439  0.00  0.00    +0.000 OA
ATOM   1421  H   A   B  19      -9.803  32.920 -24.598  0.00  0.00    +0.000 HD
ENDBRANCH14061420
BRANCH14031422
ATOM   1422  C5' A   B  19      -9.005  32.767 -28.572  0.00  0.00    +0.000 C 
BRANCH14221423
ATOM   1423  O5' A   B  19      -9.983  32.388 -29.536  0.00  0.00    +0.000 OA
BRANCH14231424
ATOM   1424  P   A   B  19      -9.610  32.285 -31.081  0.00  0.00    +0.000 P 
ATOM   1425  OP2 A   B  19     -10.824  31.850 -31.823  0.00  0.00    +0.000 OA
BRANCH14241426
ATOM   1426  OP1 A   B  19      -8.357  31.500 -31.200  0.00  0.00    +0.000 OA
ATOM   1427  H   A   B  19      -8.110  31.424 -32.135  0.00  0.00    +0.000 HD
ENDBRANCH14241426
BRANCH14241428
ATOM   1428  O3' G   B  18      -9.295  33.793 -31.473  0.00  0.00    +0.000 OA
BRANCH14281431
ATOM   1429  C4' G   B  18     -10.012  35.787 -32.687  0.00  0.00    +0.000 C 
ATOM   1430  O4' G   B  18     -10.888  36.897 -32.356  0.00  0.00    +0.000 OA
ATOM   1431  C3' G   B  18     -10.345  34.739 -31.642  0.00  0.00    +0.000 C 
ATOM   1432  C2' G   B  18     -10.603  35.590 -30.409  0.00  0.00    +0.000 C 
ATOM   1433  C1' G   B  18     -11.322  36.786 -31.019  0.00  0.00    +0.000 C 
BRANCH14331434
ATOM   1434  N9  G   B  18     -12.783  36.610 -31.017  0.00  0.00    +0.000 N 
ATOM   1435  C8  G   B  18     -13.609  36.449 -32.104  0.00  0.00    +0.000 A 
ATOM   1436  N7  G   B  18     -14.861  36.309 -31.779  0.00  0.00    +0.000 NA
ATOM   1437  C5  G   B  18     -14.869  36.385 -30.397  0.00  0.00    +0.000 A 
ATOM   1438  C6  G   B  18     -15.941  36.302 -29.480  0.00  0.00    +0.000 A 
ATOM   1439  O6  G   B  18     -17.144  36.138 -29.711  0.00  0.00    +0.000 OA
ATOM   1440  N1  G   B  18     -15.509  36.430 -28.165  0.00  0.00    +0.000 NA
ATOM   1441  C2  G   B  18     -14.205  36.615 -27.783  0.00  0.00    +0.000 A 
ATOM   1442  N2  G   B  18     -13.972  36.718 -26.465  0.00  0.00    +0.000 N 
ATOM   1443  N3  G   B  18     -13.188  36.699 -28.627  0.00  0.00    +0.000 N 
ATOM   1444  C4  G   B  18     -13.593  36.574 -29.911  0.00  0.00    +0.000 A 
ATOM   1445  H   G   B  18     -13.054  36.852 -26.136  0.00  0.00    +0.000 HD
ATOM   1446  H   G   B  18     -14.720  36.660 -25.827  0.00  0.00    +0.000 HD
ATOM   1447  H   G   B  18     -12.252  36.836 -28.353  0.00  0.00    +0.000 HD
ENDBRANCH14331434
BRANCH14321448
ATOM   1448  O2' G   B  18      -9.398  36.038 -29.816  0.00  0.00    +0.000 OA
ATOM   1449  H   G   B  18      -8.875  36.523 -30.473  0.00  0.00    +0.000 HD
ENDBRANCH14321448
BRANCH14291450
ATOM   1450  C5' G   B  18     -10.216  35.375 -34.127  0.00  0.00    +0.000 C 
BRANCH14501451
ATOM   1451  O5' G   B  18     -10.860  36.398 -34.876  0.00  0.00    +0.000 OA
BRANCH14511452
ATOM   1452  P   G   B  18     -10.383  36.782 -36.343  0.00  0.00    +0.000 P 
ATOM   1453  OP2 G   B  18     -11.589  37.152 -37.110  0.00  0.00    +0.000 OA
BRANCH14521454
ATOM   1454  OP1 G   B  18      -9.495  35.707 -36.848  0.00  0.00    +0.000 OA
ATOM   1455  H   G   B  18      -9.196  35.929 -37.744  0.00  0.00    +0.000 HD
ENDBRANCH14521454
BRANCH14521456
ATOM   1456  O3' C   B  17      -9.473  38.081 -36.113  0.00  0.00    +0.000 OA
BRANCH14561459
ATOM   1457  C4' C   B  17      -9.948  40.455 -35.769  0.00  0.00    +0.000 C 
ATOM   1458  O4' C   B  17      -9.772  41.360 -34.643  0.00  0.00    +0.000 OA
ATOM   1459  C3' C   B  17      -9.828  39.076 -35.152  0.00  0.00    +0.000 C 
ATOM   1460  C2' C   B  17      -8.756  39.291 -34.086  0.00  0.00    +0.000 C 
ATOM   1461  C1' C   B  17      -9.104  40.696 -33.588  0.00  0.00    +0.000 C 
BRANCH14611462
ATOM   1462  N1  C   B  17      -9.984  40.676 -32.402  0.00  0.00    +0.000 N 
ATOM   1463  C2  C   B  17      -9.405  40.524 -31.137  0.00  0.00    +0.000 A 
ATOM   1464  O2  C   B  17      -8.172  40.415 -31.042  0.00  0.00    +0.000 OA
ATOM   1465  N3  C   B  17     -10.205  40.504 -30.041  0.00  0.00    +0.000 NA
ATOM   1466  C4  C   B  17     -11.527  40.625 -30.173  0.00  0.00    +0.000 A 
ATOM   1467  N4  C   B  17     -12.273  40.601 -29.068  0.00  0.00    +0.000 N 
ATOM   1468  C5  C   B  17     -12.136  40.779 -31.449  0.00  0.00    +0.000 A 
ATOM   1469  C6  C   B  17     -11.337  40.799 -32.524  0.00  0.00    +0.000 A 
ATOM   1470  H   C   B  17     -13.252  40.688 -29.133  0.00  0.00    +0.000 HD
ATOM   1471  H   C   B  17     -11.845  40.496 -28.187  0.00  0.00    +0.000 HD
ENDBRANCH14611462
BRANCH14601472
ATOM   1472  O2' C   B  17      -7.452  39.310 -34.637  0.00  0.00    +0.000 OA
ATOM   1473  H   C   B  17      -7.400  39.995 -35.322  0.00  0.00    +0.000 HD
ENDBRANCH14601472
BRANCH14571474
ATOM   1474  C5' C   B  17     -11.263  40.754 -36.455  0.00  0.00    +0.000 C 
BRANCH14741475
ATOM   1475  O5' C   B  17     -12.358  40.547 -35.571  0.00  0.00    +0.000 OA
BRANCH14751476
ATOM   1476  P   C   B  17     -13.834  40.995 -35.968  0.00  0.00    +0.000 P 
ATOM   1477  OP1 C   B  17     -14.089  40.562 -37.357  0.00  0.00    +0.000 OA
BRANCH14761478
ATOM   1478  OP2 C   B  17     -14.754  40.564 -34.882  0.00  0.00    +0.000 OA
ATOM   1479  H   C   B  17     -15.661  40.827 -35.103  0.00  0.00    +0.000 HD
ENDBRANCH14761478
BRANCH14761480
ATOM   1480  O3' C   B  16     -13.754  42.597 -35.937  0.00  0.00    +0.000 OA
BRANCH14801483
ATOM   1481  C4' C   B  16     -14.376  44.537 -34.596  0.00  0.00    +0.000 C 
ATOM   1482  O4' C   B  16     -13.649  45.396 -33.671  0.00  0.00    +0.000 OA
ATOM   1483  C3' C   B  16     -13.505  43.309 -34.724  0.00  0.00    +0.000 C 
ATOM   1484  C2' C   B  16     -12.098  43.897 -34.659  0.00  0.00    +0.000 C 
ATOM   1485  C1' C   B  16     -12.282  45.028 -33.648  0.00  0.00    +0.000 C 
BRANCH14851486
ATOM   1486  N1  C   B  16     -11.913  44.646 -32.271  0.00  0.00    +0.000 N 
ATOM   1487  C2  C   B  16     -10.563  44.658 -31.906  0.00  0.00    +0.000 A 
ATOM   1488  O2  C   B  16      -9.712  44.984 -32.745  0.00  0.00    +0.000 OA
ATOM   1489  N3  C   B  16     -10.216  44.315 -30.640  0.00  0.00    +0.000 NA
ATOM   1490  C4  C   B  16     -11.154  43.972 -29.758  0.00  0.00    +0.000 A 
ATOM   1491  N4  C   B  16     -10.767  43.647 -28.526  0.00  0.00    +0.000 N 
ATOM   1492  C5  C   B  16     -12.531  43.951 -30.105  0.00  0.00    +0.000 A 
ATOM   1493  C6  C   B  16     -12.864  44.294 -31.358  0.00  0.00    +0.000 A 
ATOM   1494  H   C   B  16      -9.811  43.663 -28.290  0.00  0.00    +0.000 HD
ATOM   1495  H   C   B  16     -11.437  43.391 -27.851  0.00  0.00    +0.000 HD
ENDBRANCH14851486
BRANCH14841496
ATOM   1496  O2' C   B  16     -11.686  44.446 -35.894  0.00  0.00    +0.000 OA
ATOM   1497  H   C   B  16     -12.322  45.122 -36.176  0.00  0.00    +0.000 HD
ENDBRANCH14841496
BRANCH14811498
ATOM   1498  C5' C   B  16     -15.773  44.302 -34.071  0.00  0.00    +0.000 C 
BRANCH14981499
ATOM   1499  O5' C   B  16     -15.739  43.663 -32.797  0.00  0.00    +0.000 OA
BRANCH14991500
ATOM   1500  P   C   B  16     -17.039  43.561 -31.893  0.00  0.00    +0.000 P 
ATOM   1501  OP1 C   B  16     -18.166  43.120 -32.746  0.00  0.00    +0.000 OA
BRANCH15001502
ATOM   1502  OP2 C   B  16     -16.694  42.791 -30.672  0.00  0.00    +0.000 OA
ATOM   1503  H   C   B  16     -16.549  41.861 -30.906  0.00  0.00    +0.000 HD
ENDBRANCH15001502
BRANCH15001504
ATOM   1504  O3' U   B  15     -17.267  45.087 -31.451  0.00  0.00    +0.000 OA
BRANCH15041507
ATOM   1505  C4' U   B  15     -17.313  46.632 -29.571  0.00  0.00    +0.000 C 
ATOM   1506  O4' U   B  15     -16.342  47.538 -28.991  0.00  0.00    +0.000 OA
ATOM   1507  C3' U   B  15     -16.492  45.689 -30.424  0.00  0.00    +0.000 C 
ATOM   1508  C2' U   B  15     -15.388  46.596 -30.952  0.00  0.00    +0.000 C 
ATOM   1509  C1' U   B  15     -15.144  47.512 -29.753  0.00  0.00    +0.000 C 
BRANCH15091510
ATOM   1510  N1  U   B  15     -14.042  47.064 -28.884  0.00  0.00    +0.000 N 
ATOM   1511  C2  U   B  15     -12.739  47.194 -29.335  0.00  0.00    +0.000 A 
ATOM   1512  O2  U   B  15     -12.448  47.657 -30.428  0.00  0.00    +0.000 OA
ATOM   1513  N3  U   B  15     -11.773  46.755 -28.461  0.00  0.00    +0.000 N 
ATOM   1514  C4  U   B  15     -11.973  46.222 -27.204  0.00  0.00    +0.000 A 
ATOM   1515  O4  U   B  15     -11.003  45.874 -26.533  0.00  0.00    +0.000 OA
ATOM   1516  C5  U   B  15     -13.339  46.131 -26.808  0.00  0.00    +0.000 A 
ATOM   1517  C6  U   B  15     -14.304  46.543 -27.642  0.00  0.00    +0.000 A 
ATOM   1518  H   U   B  15     -10.839  46.829 -28.764  0.00  0.00    +0.000 HD
ENDBRANCH15091510
BRANCH15081519
ATOM   1519  O2' U   B  15     -15.804  47.370 -32.051  0.00  0.00    +0.000 OA
ATOM   1520  H   U   B  15     -16.580  47.896 -31.801  0.00  0.00    +0.000 HD
ENDBRANCH15081519
BRANCH15051521
ATOM   1521  C5' U   B  15     -18.115  45.991 -28.466  0.00  0.00    +0.000 C 
BRANCH15211522
ATOM   1522  O5' U   B  15     -17.255  45.263 -27.585  0.00  0.00    +0.000 OA
BRANCH15221523
ATOM   1523  P   U   B  15     -17.397  45.429 -26.003  0.00  0.00    +0.000 P 
ATOM   1524  OP1 U   B  15     -17.012  46.816 -25.630  0.00  0.00    +0.000 OA
BRANCH15231525
ATOM   1525  OP2 U   B  15     -18.734  44.915 -25.619  0.00  0.00    +0.000 OA
ATOM   1526  H   U   B  15     -19.421  45.491 -25.989  0.00  0.00    +0.000 HD
ENDBRANCH15231525
BRANCH15231527
ATOM   1527  O3' A   B  14     -16.293  44.451 -25.373  0.00  0.00    +0.000 OA
BRANCH15271530
ATOM   1528  C4' A   B  14     -15.883  42.274 -24.325  0.00  0.00    +0.000 C 
ATOM   1529  O4' A   B  14     -15.744  40.933 -24.851  0.00  0.00    +0.000 OA
ATOM   1530  C3' A   B  14     -16.419  43.051 -25.506  0.00  0.00    +0.000 C 
ATOM   1531  C2' A   B  14     -15.592  42.472 -26.644  0.00  0.00    +0.000 C 
ATOM   1532  C1' A   B  14     -15.569  41.001 -26.255  0.00  0.00    +0.000 C 
BRANCH15321533
ATOM   1533  N9  A   B  14     -16.652  40.270 -26.918  0.00  0.00    +0.000 N 
ATOM   1534  C8  A   B  14     -17.873  39.898 -26.423  0.00  0.00    +0.000 A 
ATOM   1535  N7  A   B  14     -18.621  39.274 -27.300  0.00  0.00    +0.000 NA
ATOM   1536  C5  A   B  14     -17.836  39.237 -28.447  0.00  0.00    +0.000 A 
ATOM   1537  C6  A   B  14     -18.051  38.717 -29.727  0.00  0.00    +0.000 A 
ATOM   1538  N1  A   B  14     -17.066  38.845 -30.636  0.00  0.00    +0.000 NA
ATOM   1539  C2  A   B  14     -15.940  39.460 -30.275  0.00  0.00    +0.000 A 
ATOM   1540  N3  A   B  14     -15.617  39.992 -29.100  0.00  0.00    +0.000 NA
ATOM   1541  C4  A   B  14     -16.622  39.844 -28.222  0.00  0.00    +0.000 A 
BRANCH15371542
ATOM   1542  N6  A   B  14     -19.181  38.106 -30.093  0.00  0.00    +0.000 N 
ATOM   1543  H   A   B  14     -19.278  37.758 -31.009  0.00  0.00    +0.000 HD
ATOM   1544  H   A   B  14     -19.917  38.003 -29.447  0.00  0.00    +0.000 HD
ENDBRANCH15371542
ENDBRANCH15321533
BRANCH15311545
ATOM   1545  O2' A   B  14     -14.281  42.978 -26.658  0.00  0.00    +0.000 OA
ATOM   1546  H   A   B  14     -13.860  42.810 -25.800  0.00  0.00    +0.000 HD
ENDBRANCH15311545
BRANCH15281547
ATOM   1547  C5' A   B  14     -16.730  42.267 -23.079  0.00  0.00    +0.000 C 
BRANCH15471548
ATOM   1548  O5' A   B  14     -18.053  41.846 -23.348  0.00  0.00    +0.000 OA
BRANCH15481549
ATOM   1549  P   A   B  14     -19.092  41.678 -22.156  0.00  0.00    +0.000 P 
ATOM   1550  OP2 A   B  14     -20.389  41.275 -22.750  0.00  0.00    +0.000 OA
BRANCH15491551
ATOM   1551  OP1 A   B  14     -19.027  42.872 -21.293  0.00  0.00    +0.000 OA
ATOM   1552  H   A   B  14     -19.373  43.639 -21.776  0.00  0.00    +0.000 HD
ENDBRANCH15491551
BRANCH15491553
ATOM   1553  O3' C   B  13     -18.505  40.446 -21.296  0.00  0.00    +0.000 OA
BRANCH15531556
ATOM   1554  C4' C   B  13     -18.723  38.037 -20.858  0.00  0.00    +0.000 C 
ATOM   1555  O4' C   B  13     -18.315  36.850 -21.590  0.00  0.00    +0.000 OA
ATOM   1556  C3' C   B  13     -18.534  39.147 -21.867  0.00  0.00    +0.000 C 
ATOM   1557  C2' C   B  13     -17.224  38.738 -22.523  0.00  0.00    +0.000 C 
ATOM   1558  C1' C   B  13     -17.412  37.226 -22.615  0.00  0.00    +0.000 C 
BRANCH15581559
ATOM   1559  N1  C   B  13     -17.963  36.829 -23.930  0.00  0.00    +0.000 N 
ATOM   1560  C2  C   B  13     -17.064  36.677 -24.991  0.00  0.00    +0.000 A 
ATOM   1561  O2  C   B  13     -15.857  36.851 -24.787  0.00  0.00    +0.000 OA
ATOM   1562  N3  C   B  13     -17.533  36.338 -26.214  0.00  0.00    +0.000 NA
ATOM   1563  C4  C   B  13     -18.840  36.160 -26.399  0.00  0.00    +0.000 A 
ATOM   1564  N4  C   B  13     -19.253  35.830 -27.620  0.00  0.00    +0.000 N 
ATOM   1565  C5  C   B  13     -19.775  36.310 -25.337  0.00  0.00    +0.000 A 
ATOM   1566  C6  C   B  13     -19.299  36.645 -24.133  0.00  0.00    +0.000 A 
ATOM   1567  H   C   B  13     -18.600  35.728 -28.350  0.00  0.00    +0.000 HD
ATOM   1568  H   C   B  13     -20.212  35.688 -27.794  0.00  0.00    +0.000 HD
ENDBRANCH15581559
BRANCH15571569
ATOM   1569  O2' C   B  13     -16.114  39.021 -21.703  0.00  0.00    +0.000 OA
ATOM   1570  H   C   B  13     -16.228  38.587 -20.843  0.00  0.00    +0.000 HD
ENDBRANCH15571569
BRANCH15541571
ATOM   1571  C5' C   B  13     -20.113  37.860 -20.302  0.00  0.00    +0.000 C 
BRANCH15711572
ATOM   1572  O5' C   B  13     -21.081  37.799 -21.336  0.00  0.00    +0.000 OA
BRANCH15721573
ATOM   1573  P   C   B  13     -22.598  37.471 -20.997  0.00  0.00    +0.000 P 
ATOM   1574  OP2 C   B  13     -23.355  37.457 -22.276  0.00  0.00    +0.000 OA
BRANCH15731575
ATOM   1575  OP1 C   B  13     -23.036  38.354 -19.892  0.00  0.00    +0.000 OA
ATOM   1576  H   C   B  13     -23.088  39.269 -20.210  0.00  0.00    +0.000 HD
ENDBRANCH15731575
BRANCH15731577
ATOM   1577  O3' U   B  12     -22.533  35.970 -20.402  0.00  0.00    +0.000 OA
BRANCH15771580
ATOM   1578  C4' U   B  12     -23.043  33.628 -20.893  0.00  0.00    +0.000 C 
ATOM   1579  O4' U   B  12     -22.346  32.582 -21.621  0.00  0.00    +0.000 OA
ATOM   1580  C3' U   B  12     -22.313  34.890 -21.297  0.00  0.00    +0.000 C 
ATOM   1581  C2' U   B  12     -20.867  34.418 -21.342  0.00  0.00    +0.000 C 
ATOM   1582  C1' U   B  12     -21.037  33.019 -21.936  0.00  0.00    +0.000 C 
BRANCH15821583
ATOM   1583  N1  U   B  12     -20.870  33.019 -23.405  0.00  0.00    +0.000 N 
ATOM   1584  C2  U   B  12     -19.577  32.946 -23.889  0.00  0.00    +0.000 A 
ATOM   1585  O2  U   B  12     -18.602  32.879 -23.165  0.00  0.00    +0.000 OA
ATOM   1586  N3  U   B  12     -19.464  32.955 -25.259  0.00  0.00    +0.000 N 
ATOM   1587  C4  U   B  12     -20.492  33.030 -26.170  0.00  0.00    +0.000 A 
ATOM   1588  O4  U   B  12     -20.230  33.031 -27.374  0.00  0.00    +0.000 OA
ATOM   1589  C5  U   B  12     -21.797  33.103 -25.593  0.00  0.00    +0.000 A 
ATOM   1590  C6  U   B  12     -21.937  33.094 -24.262  0.00  0.00    +0.000 A 
ATOM   1591  H   U   B  12     -18.552  32.902 -25.627  0.00  0.00    +0.000 HD
ENDBRANCH15821583
BRANCH15811592
ATOM   1592  O2' U   B  12     -20.309  34.306 -20.049  0.00  0.00    +0.000 OA
ATOM   1593  H   U   B  12     -20.856  33.713 -19.511  0.00  0.00    +0.000 HD
ENDBRANCH15811592
BRANCH15781594
ATOM   1594  C5' U   B  12     -24.517  33.586 -21.212  0.00  0.00    +0.000 C 
BRANCH15941595
ATOM   1595  O5' U   B  12     -24.763  33.950 -22.563  0.00  0.00    +0.000 OA
BRANCH15951596
ATOM   1596  P   U   B  12     -26.210  33.784 -23.199  0.00  0.00    +0.000 P 
ATOM   1597  OP2 U   B  12     -26.127  34.161 -24.632  0.00  0.00    +0.000 OA
BRANCH15961598
ATOM   1598  OP1 U   B  12     -27.188  34.463 -22.315  0.00  0.00    +0.000 OA
ATOM   1599  H   U   B  12     -28.079  34.372 -22.688  0.00  0.00    +0.000 HD
ENDBRANCH15961598
BRANCH15961600
ATOM   1600  O3' U   B  11     -26.459  32.207 -23.066  0.00  0.00    +0.000 OA
BRANCH16001603
ATOM   1601  C4' U   B  11     -26.695  30.146 -24.353  0.00  0.00    +0.000 C 
ATOM   1602  O4' U   B  11     -25.753  29.169 -24.869  0.00  0.00    +0.000 OA
ATOM   1603  C3' U   B  11     -25.825  31.328 -23.986  0.00  0.00    +0.000 C 
ATOM   1604  C2' U   B  11     -24.583  30.649 -23.429  0.00  0.00    +0.000 C 
ATOM   1605  C1' U   B  11     -24.459  29.443 -24.362  0.00  0.00    +0.000 C 
BRANCH16051606
ATOM   1606  N1  U   B  11     -23.544  29.700 -25.496  0.00  0.00    +0.000 N 
ATOM   1607  C2  U   B  11     -22.188  29.554 -25.259  0.00  0.00    +0.000 A 
ATOM   1608  O2  U   B  11     -21.736  29.232 -24.176  0.00  0.00    +0.000 OA
ATOM   1609  N3  U   B  11     -21.377  29.804 -26.340  0.00  0.00    +0.000 N 
ATOM   1610  C4  U   B  11     -21.774  30.174 -27.604  0.00  0.00    +0.000 A 
ATOM   1611  O4  U   B  11     -20.922  30.363 -28.474  0.00  0.00    +0.000 OA
ATOM   1612  C5  U   B  11     -23.187  30.304 -27.769  0.00  0.00    +0.000 A 
ATOM   1613  C6  U   B  11     -24.003  30.067 -26.734  0.00  0.00    +0.000 A 
ATOM   1614  H   U   B  11     -20.408  29.708 -26.194  0.00  0.00    +0.000 HD
ENDBRANCH16051606
BRANCH16041615
ATOM   1615  O2' U   B  11     -24.787  30.190 -22.107  0.00  0.00    +0.000 OA
ATOM   1616  H   U   B  11     -25.554  29.596 -22.086  0.00  0.00    +0.000 HD
ENDBRANCH16041615
BRANCH16011617
ATOM   1617  C5' U   B  11     -27.771  30.416 -25.375  0.00  0.00    +0.000 C 
BRANCH16171618
ATOM   1618  O5' U   B  11     -27.243  31.087 -26.514  0.00  0.00    +0.000 OA
BRANCH16181619
ATOM   1619  P   U   B  11     -28.130  31.317 -27.811  0.00  0.00    +0.000 P 
ATOM   1620  OP2 U   B  11     -27.270  31.919 -28.860  0.00  0.00    +0.000 OA
BRANCH16191621
ATOM   1621  OP1 U   B  11     -29.377  32.009 -27.400  0.00  0.00    +0.000 OA
ATOM   1622  H   U   B  11     -29.935  32.160 -28.179  0.00  0.00    +0.000 HD
ENDBRANCH16191621
BRANCH16191623
ATOM   1623  O3' U   B  10     -28.514  29.823 -28.220  0.00  0.00    +0.000 OA
BRANCH16231626
ATOM   1624  C4' U   B  10     -28.188  28.091 -29.906  0.00  0.00    +0.000 C 
ATOM   1625  O4' U   B  10     -27.186  27.059 -30.108  0.00  0.00    +0.000 OA
ATOM   1626  C3' U   B  10     -27.555  29.012 -28.889  0.00  0.00    +0.000 C 
ATOM   1627  C2' U   B  10     -26.835  28.032 -27.975  0.00  0.00    +0.000 C 
ATOM   1628  C1' U   B  10     -26.326  27.002 -28.985  0.00  0.00    +0.000 C 
BRANCH16281629
ATOM   1629  N1  U   B  10     -24.943  27.280 -29.425  0.00  0.00    +0.000 N 
ATOM   1630  C2  U   B  10     -23.916  26.912 -28.572  0.00  0.00    +0.000 A 
ATOM   1631  O2  U   B  10     -24.108  26.379 -27.494  0.00  0.00    +0.000 OA
ATOM   1632  N3  U   B  10     -22.649  27.192 -29.026  0.00  0.00    +0.000 N 
ATOM   1633  C4  U   B  10     -22.311  27.788 -30.218  0.00  0.00    +0.000 A 
ATOM   1634  O4  U   B  10     -21.122  27.974 -30.484  0.00  0.00    +0.000 OA
ATOM   1635  C5  U   B  10     -23.425  28.136 -31.043  0.00  0.00    +0.000 A 
ATOM   1636  C6  U   B  10     -24.670  27.875 -30.630  0.00  0.00    +0.000 A 
ATOM   1637  H   U   B  10     -21.904  26.939 -28.434  0.00  0.00    +0.000 HD
ENDBRANCH16281629
BRANCH16271638
ATOM   1638  O2' U   B  10     -27.726  27.397 -27.079  0.00  0.00    +0.000 OA
ATOM   1639  H   U   B  10     -28.430  26.957 -27.581  0.00  0.00    +0.000 HD
ENDBRANCH16271638
BRANCH16241640
ATOM   1640  C5' U   B  10     -28.548  28.726 -31.223  0.00  0.00    +0.000 C 
BRANCH16401641
ATOM   1641  O5' U   B  10     -27.463  29.489 -31.741  0.00  0.00    +0.000 OA
BRANCH16411642
ATOM   1642  P   U   B  10     -27.469  30.015 -33.237  0.00  0.00    +0.000 P 
ATOM   1643  OP2 U   B  10     -26.115  30.532 -33.555  0.00  0.00    +0.000 OA
BRANCH16421644
ATOM   1644  OP1 U   B  10     -28.648  30.898 -33.403  0.00  0.00    +0.000 OA
ATOM   1645  H   U   B  10     -28.675  31.234 -34.313  0.00  0.00    +0.000 HD
ENDBRANCH16421644
BRANCH16421646
ATOM   1646  O3' A   B   9     -27.754  28.699 -34.040  0.00  0.00    +0.000 OA
BRANCH16461649
ATOM   1647  C4' A   B   9     -26.619  27.316 -35.693  0.00  0.00    +0.000 C 
ATOM   1648  O4' A   B   9     -25.931  26.036 -35.633  0.00  0.00    +0.000 OA
ATOM   1649  C3' A   B   9     -26.711  27.754 -34.245  0.00  0.00    +0.000 C 
ATOM   1650  C2' A   B   9     -26.904  26.445 -33.508  0.00  0.00    +0.000 C 
ATOM   1651  C1' A   B   9     -26.003  25.517 -34.320  0.00  0.00    +0.000 C 
BRANCH16511652
ATOM   1652  N9  A   B   9     -24.629  25.442 -33.792  0.00  0.00    +0.000 N 
ATOM   1653  C8  A   B   9     -23.488  25.866 -34.413  0.00  0.00    +0.000 A 
ATOM   1654  N7  A   B   9     -22.396  25.666 -33.709  0.00  0.00    +0.000 NA
ATOM   1655  C5  A   B   9     -22.856  25.070 -32.544  0.00  0.00    +0.000 A 
ATOM   1656  C6  A   B   9     -22.195  24.615 -31.395  0.00  0.00    +0.000 A 
ATOM   1657  N6  A   B   9     -20.875  24.695 -31.219  0.00  0.00    +0.000 N 
ATOM   1658  N1  A   B   9     -22.940  24.069 -30.420  0.00  0.00    +0.000 NA
ATOM   1659  C2  A   B   9     -24.267  23.991 -30.599  0.00  0.00    +0.000 A 
ATOM   1660  N3  A   B   9     -25.002  24.385 -31.633  0.00  0.00    +0.000 NA
ATOM   1661  C4  A   B   9     -24.230  24.922 -32.586  0.00  0.00    +0.000 A 
ATOM   1662  H   A   B   9     -20.308  25.091 -31.920  0.00  0.00    +0.000 HD
ATOM   1663  H   A   B   9     -20.468  24.358 -30.388  0.00  0.00    +0.000 HD
ENDBRANCH16511652
BRANCH16501664
ATOM   1664  O2' A   B   9     -28.241  25.998 -33.582  0.00  0.00    +0.000 OA
ATOM   1665  H   A   B   9     -28.506  25.924 -34.512  0.00  0.00    +0.000 HD
ENDBRANCH16501664
BRANCH16471666
ATOM   1666  C5' A   B   9     -25.877  28.260 -36.596  0.00  0.00    +0.000 C 
BRANCH16661667
ATOM   1667  O5' A   B   9     -24.994  29.074 -35.834  0.00  0.00    +0.000 OA
BRANCH16671675
ATOM   1668  C4' U   B   8     -21.074  29.929 -37.686  0.00  0.00    +0.000 C 
ATOM   1669  O4' U   B   8     -20.638  30.520 -38.932  0.00  0.00    +0.000 OA
ATOM   1670  C3' U   B   8     -22.059  28.874 -38.109  0.00  0.00    +0.000 C 
ATOM   1671  O3' U   B   8     -22.945  28.461 -37.059  0.00  0.00    +0.000 OA
ATOM   1672  C2' U   B   8     -22.756  29.506 -39.316  0.00  0.00    +0.000 C 
ATOM   1673  O2' U   B   8     -23.812  30.357 -38.957  0.00  0.00    +0.000 OA
ATOM   1674  C1' U   B   8     -21.630  30.337 -39.929  0.00  0.00    +0.000 C 
ATOM   1675  P   A   B   9     -23.703  29.713 -36.496  0.00  0.00    +0.000 P 
ATOM   1676  OP1 A   B   9     -24.165  30.565 -37.620  0.00  0.00    +0.000 OA
ATOM   1677  OP2 A   B   9     -22.880  30.312 -35.419  0.00  0.00    +0.000 OA
BRANCH16741678
ATOM   1678  N1  U   B   8     -21.023  29.719 -41.108  0.00  0.00    +0.000 N 
ATOM   1679  C2  U   B   8     -21.679  29.880 -42.317  0.00  0.00    +0.000 A 
ATOM   1680  O2  U   B   8     -22.716  30.505 -42.427  0.00  0.00    +0.000 OA
ATOM   1681  N3  U   B   8     -21.073  29.282 -43.393  0.00  0.00    +0.000 N 
ATOM   1682  C4  U   B   8     -19.905  28.552 -43.388  0.00  0.00    +0.000 A 
ATOM   1683  O4  U   B   8     -19.491  28.079 -44.442  0.00  0.00    +0.000 OA
ATOM   1684  C5  U   B   8     -19.289  28.427 -42.107  0.00  0.00    +0.000 A 
ATOM   1685  C6  U   B   8     -19.856  29.002 -41.036  0.00  0.00    +0.000 A 
ATOM   1686  H   U   B   8     -21.522  29.386 -44.263  0.00  0.00    +0.000 HD
ENDBRANCH16741678
BRANCH16681687
ATOM   1687  C5' U   B   8     -19.882  29.435 -36.914  0.00  0.00    +0.000 C 
BRANCH16871688
ATOM   1688  O5' U   B   8     -19.136  28.500 -37.685  0.00  0.00    +0.000 OA
BRANCH16881689
ATOM   1689  P   U   B   8     -17.729  27.946 -37.192  0.00  0.00    +0.000 P 
ATOM   1690  OP2 U   B   8     -17.205  27.028 -38.239  0.00  0.00    +0.000 OA
BRANCH16891691
ATOM   1691  OP1 U   B   8     -17.864  27.475 -35.798  0.00  0.00    +0.000 OA
ATOM   1692  H   U   B   8     -18.425  26.684 -35.777  0.00  0.00    +0.000 HD
ENDBRANCH16891691
BRANCH16891693
ATOM   1693  O3' C   B   7     -16.797  29.243 -37.136  0.00  0.00    +0.000 OA
BRANCH16931696
ATOM   1694  C4' C   B   7     -15.127  30.563 -38.337  0.00  0.00    +0.000 C 
ATOM   1695  O4' C   B   7     -15.208  31.548 -39.402  0.00  0.00    +0.000 OA
ATOM   1696  C3' C   B   7     -16.490  29.910 -38.352  0.00  0.00    +0.000 C 
ATOM   1697  C2' C   B   7     -17.405  31.089 -38.638  0.00  0.00    +0.000 C 
ATOM   1698  C1' C   B   7     -16.564  31.879 -39.639  0.00  0.00    +0.000 C 
BRANCH16981699
ATOM   1699  N1  C   B   7     -16.902  31.561 -41.038  0.00  0.00    +0.000 N 
ATOM   1700  C2  C   B   7     -18.037  32.156 -41.600  0.00  0.00    +0.000 A 
ATOM   1701  O2  C   B   7     -18.717  32.931 -40.910  0.00  0.00    +0.000 OA
ATOM   1702  N3  C   B   7     -18.366  31.876 -42.881  0.00  0.00    +0.000 NA
ATOM   1703  C4  C   B   7     -17.614  31.036 -43.595  0.00  0.00    +0.000 A 
ATOM   1704  N4  C   B   7     -17.978  30.792 -44.853  0.00  0.00    +0.000 N 
ATOM   1705  C5  C   B   7     -16.457  30.419 -43.049  0.00  0.00    +0.000 A 
ATOM   1706  C6  C   B   7     -16.141  30.707 -41.783  0.00  0.00    +0.000 A 
ATOM   1707  H   C   B   7     -17.446  30.177 -45.409  0.00  0.00    +0.000 HD
ATOM   1708  H   C   B   7     -18.779  31.226 -45.227  0.00  0.00    +0.000 HD
ENDBRANCH16981699
BRANCH16971709
ATOM   1709  O2' C   B   7     -17.624  31.879 -37.492  0.00  0.00    +0.000 OA
ATOM   1710  H   C   B   7     -16.772  32.178 -37.138  0.00  0.00    +0.000 HD
ENDBRANCH16971709
BRANCH16941711
ATOM   1711  C5' C   B   7     -13.944  29.658 -38.566  0.00  0.00    +0.000 C 
BRANCH17111712
ATOM   1712  O5' C   B   7     -14.013  29.024 -39.834  0.00  0.00    +0.000 OA
BRANCH17121713
ATOM   1713  P   C   B   7     -12.727  28.347 -40.487  0.00  0.00    +0.000 P 
ATOM   1714  OP2 C   B   7     -13.113  27.847 -41.832  0.00  0.00    +0.000 OA
BRANCH17131715
ATOM   1715  OP1 C   B   7     -12.143  27.414 -39.492  0.00  0.00    +0.000 OA
ATOM   1716  H   C   B   7     -11.357  26.989 -39.869  0.00  0.00    +0.000 HD
ENDBRANCH17131715
BRANCH17131717
ATOM   1717  O3' A   B   6     -11.709  29.580 -40.667  0.00  0.00    +0.000 OA
BRANCH17171720
ATOM   1718  C4' A   B   6     -10.604  31.087 -42.249  0.00  0.00    +0.000 C 
ATOM   1719  O4' A   B   6     -11.017  32.303 -42.925  0.00  0.00    +0.000 OA
ATOM   1720  C3' A   B   6     -11.904  30.516 -41.716  0.00  0.00    +0.000 C 
ATOM   1721  C2' A   B   6     -12.639  31.771 -41.281  0.00  0.00    +0.000 C 
ATOM   1722  C1' A   B   6     -12.255  32.740 -42.395  0.00  0.00    +0.000 C 
BRANCH17221723
ATOM   1723  N9  A   B   6     -13.254  32.762 -43.476  0.00  0.00    +0.000 N 
ATOM   1724  C8  A   B   6     -13.217  32.117 -44.686  0.00  0.00    +0.000 A 
ATOM   1725  N7  A   B   6     -14.270  32.338 -45.434  0.00  0.00    +0.000 NA
ATOM   1726  C5  A   B   6     -15.049  33.186 -44.662  0.00  0.00    +0.000 A 
ATOM   1727  C6  A   B   6     -16.294  33.788 -44.887  0.00  0.00    +0.000 A 
ATOM   1728  N1  A   B   6     -16.794  34.577 -43.916  0.00  0.00    +0.000 NA
ATOM   1729  C2  A   B   6     -16.083  34.746 -42.796  0.00  0.00    +0.000 A 
ATOM   1730  N3  A   B   6     -14.900  34.236 -42.469  0.00  0.00    +0.000 NA
ATOM   1731  C4  A   B   6     -14.434  33.455 -43.458  0.00  0.00    +0.000 A 
BRANCH17271732
ATOM   1732  N6  A   B   6     -17.010  33.620 -46.004  0.00  0.00    +0.000 N 
ATOM   1733  H   A   B   6     -16.666  33.048 -46.728  0.00  0.00    +0.000 HD
ATOM   1734  H   A   B   6     -17.881  34.068 -46.102  0.00  0.00    +0.000 HD
ENDBRANCH17271732
ENDBRANCH17221723
BRANCH17211735
ATOM   1735  O2' A   B   6     -12.156  32.270 -40.048  0.00  0.00    +0.000 OA
ATOM   1736  H   A   B   6     -11.202  32.433 -40.116  0.00  0.00    +0.000 HD
ENDBRANCH17211735
BRANCH17181737
ATOM   1737  C5' A   B   6      -9.833  30.209 -43.202  0.00  0.00    +0.000 C 
BRANCH17371738
ATOM   1738  O5' A   B   6     -10.648  29.791 -44.289  0.00  0.00    +0.000 OA
BRANCH17381739
ATOM   1739  P   A   B   6      -9.992  29.150 -45.594  0.00  0.00    +0.000 P 
ATOM   1740  OP2 A   B   6     -11.082  28.883 -46.567  0.00  0.00    +0.000 OA
BRANCH17391741
ATOM   1741  OP1 A   B   6      -9.097  28.050 -45.167  0.00  0.00    +0.000 OA
ATOM   1742  H   A   B   6      -8.687  27.646 -45.947  0.00  0.00    +0.000 HD
ENDBRANCH17391741
BRANCH17391743
ATOM   1743  O3' U   B   5      -9.086  30.337 -46.164  0.00  0.00    +0.000 OA
BRANCH17431746
ATOM   1744  C4' U   B   5      -8.814  31.908 -48.019  0.00  0.00    +0.000 C 
ATOM   1745  O4' U   B   5      -9.350  33.225 -48.307  0.00  0.00    +0.000 OA
ATOM   1746  C3' U   B   5      -9.686  31.401 -46.892  0.00  0.00    +0.000 C 
ATOM   1747  C2' U   B   5      -9.903  32.662 -46.069  0.00  0.00    +0.000 C 
ATOM   1748  C1' U   B   5     -10.046  33.710 -47.174  0.00  0.00    +0.000 C 
BRANCH17481749
ATOM   1749  N1  U   B   5     -11.459  33.942 -47.547  0.00  0.00    +0.000 N 
ATOM   1750  C2  U   B   5     -12.180  34.826 -46.763  0.00  0.00    +0.000 A 
ATOM   1751  O2  U   B   5     -11.699  35.411 -45.805  0.00  0.00    +0.000 OA
ATOM   1752  N3  U   B   5     -13.488  35.006 -47.145  0.00  0.00    +0.000 N 
ATOM   1753  C4  U   B   5     -14.137  34.404 -48.203  0.00  0.00    +0.000 A 
ATOM   1754  O4  U   B   5     -15.318  34.667 -48.416  0.00  0.00    +0.000 OA
ATOM   1755  C5  U   B   5     -13.326  33.506 -48.961  0.00  0.00    +0.000 A 
ATOM   1756  C6  U   B   5     -12.048  33.314 -48.615  0.00  0.00    +0.000 A 
ATOM   1757  H   U   B   5     -14.020  35.633 -46.604  0.00  0.00    +0.000 HD
ENDBRANCH17481749
BRANCH17471758
ATOM   1758  O2' U   B   5      -8.778  32.981 -45.277  0.00  0.00    +0.000 OA
ATOM   1759  H   U   B   5      -7.996  33.067 -45.845  0.00  0.00    +0.000 HD
ENDBRANCH17471758
BRANCH17441760
ATOM   1760  C5' U   B   5      -8.806  31.072 -49.274  0.00  0.00    +0.000 C 
BRANCH17601761
ATOM   1761  O5' U   B   5     -10.130  30.785 -49.708  0.00  0.00    +0.000 OA
BRANCH17611762
ATOM   1762  P   U   B   5     -10.397  30.114 -51.127  0.00  0.00    +0.000 P 
ATOM   1763  OP2 U   B   5     -11.869  30.050 -51.335  0.00  0.00    +0.000 OA
BRANCH17621764
ATOM   1764  OP1 U   B   5      -9.584  28.881 -51.216  0.00  0.00    +0.000 OA
ATOM   1765  H   U   B   5      -9.733  28.457 -52.075  0.00  0.00    +0.000 HD
ENDBRANCH17621764
BRANCH17621766
ATOM   1766  O3' A   B   4      -9.794  31.169 -52.150  0.00  0.00    +0.000 OA
BRANCH17661769
ATOM   1767  C4' A   B   4     -10.351  32.786 -53.890  0.00  0.00    +0.000 C 
ATOM   1768  O4' A   B   4     -10.657  34.202 -53.879  0.00  0.00    +0.000 OA
ATOM   1769  C3' A   B   4     -10.501  32.368 -52.442  0.00  0.00    +0.000 C 
ATOM   1770  C2' A   B   4      -9.971  33.581 -51.698  0.00  0.00    +0.000 C 
ATOM   1771  C1' A   B   4     -10.493  34.717 -52.571  0.00  0.00    +0.000 C 
BRANCH17711772
ATOM   1772  N9  A   B   4     -11.794  35.229 -52.108  0.00  0.00    +0.000 N 
ATOM   1773  C8  A   B   4     -13.039  34.948 -52.609  0.00  0.00    +0.000 A 
ATOM   1774  N7  A   B   4     -14.012  35.562 -51.982  0.00  0.00    +0.000 NA
ATOM   1775  C5  A   B   4     -13.361  36.301 -51.003  0.00  0.00    +0.000 A 
ATOM   1776  C6  A   B   4     -13.829  37.170 -50.007  0.00  0.00    +0.000 A 
ATOM   1777  N6  A   B   4     -15.127  37.454 -49.818  0.00  0.00    +0.000 N 
ATOM   1778  N1  A   B   4     -12.921  37.745 -49.193  0.00  0.00    +0.000 NA
ATOM   1779  C2  A   B   4     -11.627  37.463 -49.378  0.00  0.00    +0.000 A 
ATOM   1780  N3  A   B   4     -11.062  36.665 -50.278  0.00  0.00    +0.000 NA
ATOM   1781  C4  A   B   4     -11.996  36.106 -51.071  0.00  0.00    +0.000 A 
ATOM   1782  H   A   B   4     -15.810  37.047 -50.399  0.00  0.00    +0.000 HD
ATOM   1783  H   A   B   4     -15.397  38.069 -49.098  0.00  0.00    +0.000 HD
ENDBRANCH17711772
BRANCH17701784
ATOM   1784  O2' A   B   4      -8.554  33.620 -51.690  0.00  0.00    +0.000 OA
ATOM   1785  H   A   B   4      -8.225  33.599 -52.602  0.00  0.00    +0.000 HD
ENDBRANCH17701784
BRANCH17671786
ATOM   1786  C5' A   B   4     -11.255  32.077 -54.869  0.00  0.00    +0.000 C 
BRANCH17861787
ATOM   1787  O5' A   B   4     -12.619  32.186 -54.474  0.00  0.00    +0.000 OA
BRANCH17871788
ATOM   1788  P   A   B   4     -13.791  31.715 -55.445  0.00  0.00    +0.000 P 
ATOM   1789  OP1 A   B   4     -13.499  30.331 -55.886  0.00  0.00    +0.000 OA
BRANCH17881790
ATOM   1790  OP2 A   B   4     -15.086  32.020 -54.781  0.00  0.00    +0.000 OA
ATOM   1791  H   A   B   4     -15.817  31.741 -55.355  0.00  0.00    +0.000 HD
ENDBRANCH17881790
BRANCH17881792
ATOM   1792  O3' A   B   3     -13.643  32.663 -56.691  0.00  0.00    +0.000 OA
BRANCH17921795
ATOM   1793  C4' A   B   3     -14.493  34.549 -57.983  0.00  0.00    +0.000 C 
ATOM   1794  O4' A   B   3     -14.408  35.988 -57.828  0.00  0.00    +0.000 OA
ATOM   1795  C3' A   B   3     -14.082  34.016 -56.629  0.00  0.00    +0.000 C 
ATOM   1796  C2' A   B   3     -12.989  34.985 -56.216  0.00  0.00    +0.000 C 
ATOM   1797  C1' A   B   3     -13.535  36.302 -56.758  0.00  0.00    +0.000 C 
BRANCH17971798
ATOM   1798  N9  A   B   3     -14.281  37.058 -55.741  0.00  0.00    +0.000 N 
ATOM   1799  C8  A   B   3     -15.638  37.189 -55.608  0.00  0.00    +0.000 A 
ATOM   1800  N7  A   B   3     -15.998  37.938 -54.593  0.00  0.00    +0.000 NA
ATOM   1801  C5  A   B   3     -14.794  38.328 -54.022  0.00  0.00    +0.000 A 
ATOM   1802  C6  A   B   3     -14.487  39.134 -52.913  0.00  0.00    +0.000 A 
ATOM   1803  N6  A   B   3     -15.414  39.719 -52.140  0.00  0.00    +0.000 N 
ATOM   1804  N1  A   B   3     -13.188  39.323 -52.611  0.00  0.00    +0.000 NA
ATOM   1805  C2  A   B   3     -12.259  38.741 -53.382  0.00  0.00    +0.000 A 
ATOM   1806  N3  A   B   3     -12.421  37.966 -54.448  0.00  0.00    +0.000 NA
ATOM   1807  C4  A   B   3     -13.731  37.795 -54.719  0.00  0.00    +0.000 A 
ATOM   1808  H   A   B   3     -16.370  39.596 -52.340  0.00  0.00    +0.000 HD
ATOM   1809  H   A   B   3     -15.138  40.271 -51.373  0.00  0.00    +0.000 HD
ENDBRANCH17971798
BRANCH17961810
ATOM   1810  O2' A   B   3     -11.759  34.699 -56.859  0.00  0.00    +0.000 OA
ATOM   1811  H   A   B   3     -11.887  34.707 -57.820  0.00  0.00    +0.000 HD
ENDBRANCH17961810
BRANCH17931812
ATOM   1812  C5' A   B   3     -15.875  34.166 -58.454  0.00  0.00    +0.000 C 
BRANCH18121813
ATOM   1813  O5' A   B   3     -16.870  34.587 -57.528  0.00  0.00    +0.000 OA
BRANCH18131814
ATOM   1814  P   A   B   3     -18.418  34.456 -57.878  0.00  0.00    +0.000 P 
ATOM   1815  OP1 A   B   3     -18.655  33.095 -58.418  0.00  0.00    +0.000 OA
BRANCH18141816
ATOM   1816  OP2 A   B   3     -19.193  34.936 -56.709  0.00  0.00    +0.000 OA
ATOM   1817  H   A   B   3     -20.142  34.866 -56.899  0.00  0.00    +0.000 HD
ENDBRANCH18141816
BRANCH18141818
ATOM   1818  O3' U   B   2     -18.623  35.490 -59.063  0.00  0.00    +0.000 OA
BRANCH18181821
ATOM   1819  C4' U   B   2     -19.433  37.694 -59.759  0.00  0.00    +0.000 C 
ATOM   1820  O4' U   B   2     -18.847  39.020 -59.753  0.00  0.00    +0.000 OA
ATOM   1821  C3' U   B   2     -18.554  36.896 -58.822  0.00  0.00    +0.000 C 
ATOM   1822  C2' U   B   2     -17.175  37.476 -59.089  0.00  0.00    +0.000 C 
ATOM   1823  C1' U   B   2     -17.515  38.953 -59.289  0.00  0.00    +0.000 C 
BRANCH18231824
ATOM   1824  N1  U   B   2     -17.414  39.725 -58.032  0.00  0.00    +0.000 N 
ATOM   1825  C2  U   B   2     -16.149  40.042 -57.569  0.00  0.00    +0.000 A 
ATOM   1826  O2  U   B   2     -15.128  39.714 -58.151  0.00  0.00    +0.000 OA
ATOM   1827  N3  U   B   2     -16.122  40.760 -56.399  0.00  0.00    +0.000 N 
ATOM   1828  C4  U   B   2     -17.206  41.185 -55.658  0.00  0.00    +0.000 A 
ATOM   1829  O4  U   B   2     -17.020  41.821 -54.625  0.00  0.00    +0.000 OA
ATOM   1830  C5  U   B   2     -18.476  40.821 -56.203  0.00  0.00    +0.000 A 
ATOM   1831  C6  U   B   2     -18.535  40.124 -57.344  0.00  0.00    +0.000 A 
ATOM   1832  H   U   B   2     -15.232  40.998 -56.051  0.00  0.00    +0.000 HD
ENDBRANCH18231824
BRANCH18221833
ATOM   1833  O2' U   B   2     -16.605  36.967 -60.281  0.00  0.00    +0.000 OA
ATOM   1834  H   U   B   2     -17.205  37.137 -61.024  0.00  0.00    +0.000 HD
ENDBRANCH18221833
BRANCH18191835
ATOM   1835  C5' U   B   2     -20.885  37.789 -59.370  0.00  0.00    +0.000 C 
BRANCH18351836
ATOM   1836  O5' U   B   2     -21.031  38.344 -58.067  0.00  0.00    +0.000 OA
BRANCH18361837
ATOM   1837  P   U   B   2     -22.468  38.625 -57.434  0.00  0.00    +0.000 P 
ATOM   1838  OP1 U   B   2     -23.324  37.443 -57.680  0.00  0.00    +0.000 OA
BRANCH18371839
ATOM   1839  OP2 U   B   2     -22.279  39.129 -56.052  0.00  0.00    +0.000 OA
ATOM   1840  H   U   B   2     -21.694  39.903 -56.067  0.00  0.00    +0.000 HD
ENDBRANCH18371839
BRANCH18371841
ATOM   1841  O3' C   B   1     -23.087  39.799 -58.332  0.00  0.00    +0.000 OA
BRANCH18411844
ATOM   1842  C4' C   B   1     -23.974  42.039 -58.013  0.00  0.00    +0.000 C 
ATOM   1843  O4' C   B   1     -23.506  43.367 -58.353  0.00  0.00    +0.000 OA
ATOM   1844  C3' C   B   1     -22.747  41.163 -58.083  0.00  0.00    +0.000 C 
ATOM   1845  C2' C   B   1     -21.945  41.796 -59.197  0.00  0.00    +0.000 C 
ATOM   1846  C1' C   B   1     -22.260  43.280 -59.008  0.00  0.00    +0.000 C 
BRANCH18461847
ATOM   1847  N1  C   B   1     -21.265  44.006 -58.202  0.00  0.00    +0.000 N 
ATOM   1848  C2  C   B   1     -20.033  44.311 -58.773  0.00  0.00    +0.000 A 
ATOM   1849  O2  C   B   1     -19.808  43.965 -59.946  0.00  0.00    +0.000 OA
ATOM   1850  N3  C   B   1     -19.111  44.983 -58.046  0.00  0.00    +0.000 NA
ATOM   1851  C4  C   B   1     -19.384  45.347 -56.794  0.00  0.00    +0.000 A 
ATOM   1852  N4  C   B   1     -18.450  46.010 -56.111  0.00  0.00    +0.000 N 
ATOM   1853  C5  C   B   1     -20.631  45.054 -56.181  0.00  0.00    +0.000 A 
ATOM   1854  C6  C   B   1     -21.533  44.390 -56.916  0.00  0.00    +0.000 A 
ATOM   1855  H   C   B   1     -17.584  46.215 -56.533  0.00  0.00    +0.000 HD
ATOM   1856  H   C   B   1     -18.626  46.295 -55.185  0.00  0.00    +0.000 HD
ENDBRANCH18461847
BRANCH18451857
ATOM   1857  O2' C   B   1     -22.401  41.375 -60.462  0.00  0.00    +0.000 OA
ATOM   1858  H   C   B   1     -23.346  41.578 -60.549  0.00  0.00    +0.000 HD
ENDBRANCH18451857
BRANCH18421859
ATOM   1859  C5' C   B   1     -24.641  42.086 -56.675  0.00  0.00    +0.000 C 
BRANCH18591860
ATOM   1860  O5' C   B   1     -23.708  42.461 -55.680  0.00  0.00    +0.000 OA
BRANCH18601862
ATOM   1861  OP3 C   B   1     -24.402  44.072 -54.028  0.00  0.00    +0.000 OA
ATOM   1862  P   C   B   1     -24.100  42.803 -54.179  0.00  0.00    +0.000 P 
BRANCH18621863
ATOM   1863  OP1 C   B   1     -25.012  41.781 -53.718  0.00  0.00    +0.000 OA
ATOM   1864  H   C   B   1     -25.835  41.828 -54.229  0.00  0.00    +0.000 HD
ENDBRANCH18621863
BRANCH18621865
ATOM   1865  OP2 C   B   1     -22.808  42.813 -53.458  0.00  0.00    +0.000 OA
ATOM   1866  H   C   B   1     -22.245  43.518 -53.813  0.00  0.00    +0.000 HD
ENDBRANCH18621865
ENDBRANCH18601862
ENDBRANCH18591860
ENDBRANCH18421859
ENDBRANCH18411844
ENDBRANCH18371841
ENDBRANCH18361837
ENDBRANCH18351836
ENDBRANCH18191835
ENDBRANCH18181821
ENDBRANCH18141818
ENDBRANCH18131814
ENDBRANCH18121813
ENDBRANCH17931812
ENDBRANCH17921795
ENDBRANCH17881792
ENDBRANCH17871788
ENDBRANCH17861787
ENDBRANCH17671786
ENDBRANCH17661769
ENDBRANCH17621766
ENDBRANCH17611762
ENDBRANCH17601761
ENDBRANCH17441760
ENDBRANCH17431746
ENDBRANCH17391743
ENDBRANCH17381739
ENDBRANCH17371738
ENDBRANCH17181737
ENDBRANCH17171720
ENDBRANCH17131717
ENDBRANCH17121713
ENDBRANCH17111712
ENDBRANCH16941711
ENDBRANCH16931696
ENDBRANCH16891693
ENDBRANCH16881689
ENDBRANCH16871688
ENDBRANCH16681687
ENDBRANCH16671675
ENDBRANCH16661667
ENDBRANCH16471666
ENDBRANCH16461649
ENDBRANCH16421646
ENDBRANCH16411642
ENDBRANCH16401641
ENDBRANCH16241640
ENDBRANCH16231626
ENDBRANCH16191623
ENDBRANCH16181619
ENDBRANCH16171618
ENDBRANCH16011617
ENDBRANCH16001603
ENDBRANCH15961600
ENDBRANCH15951596
ENDBRANCH15941595
ENDBRANCH15781594
ENDBRANCH15771580
ENDBRANCH15731577
ENDBRANCH15721573
ENDBRANCH15711572
ENDBRANCH15541571
ENDBRANCH15531556
ENDBRANCH15491553
ENDBRANCH15481549
ENDBRANCH15471548
ENDBRANCH15281547
ENDBRANCH15271530
ENDBRANCH15231527
ENDBRANCH15221523
ENDBRANCH15211522
ENDBRANCH15051521
ENDBRANCH15041507
ENDBRANCH15001504
ENDBRANCH14991500
ENDBRANCH14981499
ENDBRANCH14811498
ENDBRANCH14801483
ENDBRANCH14761480
ENDBRANCH14751476
ENDBRANCH14741475
ENDBRANCH14571474
ENDBRANCH14561459
ENDBRANCH14521456
ENDBRANCH14511452
ENDBRANCH14501451
ENDBRANCH14291450
ENDBRANCH14281431
ENDBRANCH14241428
ENDBRANCH14231424
ENDBRANCH14221423
ENDBRANCH14031422
ENDBRANCH14021405
ENDBRANCH13981402
ENDBRANCH13971398
ENDBRANCH13961397
ENDBRANCH13771396
ENDBRANCH13761379
ENDBRANCH13721376
ENDBRANCH13711372
ENDBRANCH13701371
ENDBRANCH13511370
ENDBRANCH13501353
ENDBRANCH13461350
ENDBRANCH13451346
ENDBRANCH13441345
ENDBRANCH13271344
ENDBRANCH13261329
ENDBRANCH13221326
ENDBRANCH13211322
ENDBRANCH13201321
ENDBRANCH13041320
ENDBRANCH13031306
ENDBRANCH12991303
ENDBRANCH12981299
ENDBRANCH12971298
ENDBRANCH12811297
ENDBRANCH12801283
ENDBRANCH12761280
ENDBRANCH12751276
ENDBRANCH12741275
ENDBRANCH12581274
ENDBRANCH12571260
ENDBRANCH12531257
ENDBRANCH12521253
ENDBRANCH12511252
ENDBRANCH12351251
ENDBRANCH12341237
ENDBRANCH12301234
ENDBRANCH12291230
ENDBRANCH12281229
ENDBRANCH12121228
ENDBRANCH12111214
ENDBRANCH12071211
ENDBRANCH12061207
ENDBRANCH12051206
ENDBRANCH11891205
ENDBRANCH11881191
ENDBRANCH11841188
ENDBRANCH11831184
ENDBRANCH11821183
ENDBRANCH11631182
ENDBRANCH11621165
ENDBRANCH11581162
ENDBRANCH11571158
ENDBRANCH11561157
ENDBRANCH11371156
ENDBRANCH11361139
ENDBRANCH11321136
ENDBRANCH11311132
ENDBRANCH11301131
ENDBRANCH11111130
ENDBRANCH11101113
ENDBRANCH11061110
ENDBRANCH11051106
ENDBRANCH11041105
ENDBRANCH10851104
ENDBRANCH10841087
ENDBRANCH10801084
ENDBRANCH10791080
ENDBRANCH10781079
ENDBRANCH10621078
ENDBRANCH10611064
ENDBRANCH10571061
ENDBRANCH10561057
ENDBRANCH10551056
ENDBRANCH10361055
ENDBRANCH10351038
ENDBRANCH10311035
ENDBRANCH10301031
ENDBRANCH10291030
ENDBRANCH10101029
ENDBRANCH10091012
ENDBRANCH10051009
ENDBRANCH10041005
ENDBRANCH10031004
ENDBRANCH 9871003
ENDBRANCH 986 989
ENDBRANCH 982 986
ENDBRANCH 981 982
ENDBRANCH 980 981
ENDBRANCH 961 980
ENDBRANCH 960 963
ENDBRANCH 956 960
ENDBRANCH 955 956
ENDBRANCH 954 955
ENDBRANCH 938 954
ENDBRANCH 937 940
ENDBRANCH   1 937
TORSDOF 623
