REMARK  Name = /storage/kiran-stuff/aaRS/phase2/energy_scoring/vina_182jobs/modern_prors_ASP_ASP/ligand.h.pdb
REMARK  6 active torsions:
REMARK  status: ('A' for Active; 'I' for Inactive)
REMARK    1  A    between atoms: N_1  and  CA_2
REMARK    2  A    between atoms: CA_2  and  C_3
REMARK    3  A    between atoms: CA_2  and  CB_5
REMARK    4  A    between atoms: C_3  and  O_4
REMARK    5  A    between atoms: CB_5  and  CG_6
REMARK    6  A    between atoms: CG_6  and  OD2_8
REMARK                            x       y       z     vdW  Elec       q    Type
REMARK                         _______ _______ _______ _____ _____    ______ ____
ROOT
ATOM      1  CA  ASP B   1      -3.041  -8.812  10.294  0.00  0.00    +0.000 C 
ENDROOT
BRANCH   1   2
ATOM      2  N   ASP B   1      -3.581  -9.197  11.599  0.00  0.00    +0.000 NA
ATOM      3  H   ASP B   1      -3.991 -10.129  11.536  0.00  0.00    +0.000 HD
ATOM      4  H   ASP B   1      -4.298  -8.528  11.881  0.00  0.00    +0.000 HD
ENDBRANCH   1   2
BRANCH   1   5
ATOM      5  C   ASP B   1      -2.422  -7.425  10.359  0.00  0.00    +0.000 C 
ATOM      6  OXT ASP B   1      -1.840  -6.959   9.370  0.00  0.00    +0.000 OA
BRANCH   5   7
ATOM      7  O   ASP B   1      -2.494  -6.753  11.397  0.00  0.00    +0.000 OA
ATOM      8  H   ASP B   1      -2.933  -7.099  12.149  0.00  0.00    +0.000 HD
ENDBRANCH   5   7
ENDBRANCH   1   5
BRANCH   1   9
ATOM      9  CB  ASP B   1      -4.170  -8.826   9.274  0.00  0.00    +0.000 C 
BRANCH   9  10
ATOM     10  CG  ASP B   1      -3.634  -8.906   7.868  0.00  0.00    +0.000 C 
ATOM     11  OD1 ASP B   1      -3.299  -7.853   7.300  0.00  0.00    +0.000 OA
BRANCH  10  12
ATOM     12  OD2 ASP B   1      -3.511 -10.028   7.338  0.00  0.00    +0.000 OA
ATOM     13  H   ASP B   1      -3.777 -10.797   7.802  0.00  0.00    +0.000 HD
ENDBRANCH  10  12
ENDBRANCH   9  10
ENDBRANCH   1   9
TORSDOF 6
