REMARK  Name = /storage/kiran-stuff/aaRS/phase2/energy_scoring/vina_182jobs/modern_prors_ASP_ASP/ligand.h.pdb
REMARK  6 active torsions:
REMARK  status: ('A' for Active; 'I' for Inactive)
REMARK    1  A    between atoms: N_1  and  CA_2
REMARK    2  A    between atoms: CA_2  and  C_3
REMARK    3  A    between atoms: CA_2  and  CB_5
REMARK    4  A    between atoms: C_3  and  O_4
REMARK    5  A    between atoms: CB_5  and  CG_6
REMARK    6  A    between atoms: CG_6  and  OD2_8
REMARK                            x       y       z     vdW  Elec       q    Type
REMARK                         _______ _______ _______ _____ _____    ______ ____
ROOT
ATOM      1  CA  ASP B   1      -3.490  -8.226  10.143  0.00  0.00    +0.000 C 
ENDROOT
BRANCH   1   2
ATOM      2  N   ASP B   1      -4.459  -8.765  11.097  0.00  0.00    +0.000 NA
ATOM      3  H   ASP B   1      -4.877  -9.614  10.715  0.00  0.00    +0.000 HD
ATOM      4  H   ASP B   1      -5.190  -8.073  11.268  0.00  0.00    +0.000 HD
ENDBRANCH   1   2
BRANCH   1   5
ATOM      5  C   ASP B   1      -2.850  -6.959  10.688  0.00  0.00    +0.000 C 
ATOM      6  OXT ASP B   1      -1.717  -6.627  10.315  0.00  0.00    +0.000 OA
BRANCH   5   7
ATOM      7  O   ASP B   1      -3.454  -6.252  11.507  0.00  0.00    +0.000 OA
ATOM      8  H   ASP B   1      -4.312  -6.497  11.793  0.00  0.00    +0.000 HD
ENDBRANCH   5   7
ENDBRANCH   1   5
BRANCH   1   9
ATOM      9  CB  ASP B   1      -4.208  -7.920   8.836  0.00  0.00    +0.000 C 
BRANCH   9  10
ATOM     10  CG  ASP B   1      -3.362  -8.298   7.648  0.00  0.00    +0.000 C 
ATOM     11  OD1 ASP B   1      -2.731  -7.403   7.061  0.00  0.00    +0.000 OA
BRANCH  10  12
ATOM     12  OD2 ASP B   1      -3.297  -9.498   7.318  0.00  0.00    +0.000 OA
ATOM     13  H   ASP B   1      -3.791 -10.141   7.788  0.00  0.00    +0.000 HD
ENDBRANCH  10  12
ENDBRANCH   9  10
ENDBRANCH   1   9
TORSDOF 6
