REMARK  Name = /storage/kiran-stuff/aaRS/phase2/energy_scoring/vina_182jobs/modern_thrrs_ARG_ARG/ligand.h.pdb
REMARK  7 active torsions:
REMARK  status: ('A' for Active; 'I' for Inactive)
REMARK    1  A    between atoms: N_1  and  CA_2
REMARK    2  A    between atoms: CA_2  and  C_3
REMARK    3  A    between atoms: CA_2  and  CB_5
REMARK    4  A    between atoms: C_3  and  O_4
REMARK    5  A    between atoms: CB_5  and  CG_6
REMARK    6  A    between atoms: CG_6  and  CD_7
REMARK    7  A    between atoms: CD_7  and  NE_8
REMARK                            x       y       z     vdW  Elec       q    Type
REMARK                         _______ _______ _______ _____ _____    ______ ____
ROOT
ATOM      1  CG  ARG B   1      -1.430  18.955  -4.519  0.00  0.00    +0.000 C 
ENDROOT
BRANCH   1   2
ATOM      2  CB  ARG B   1      -2.661  18.678  -5.365  0.00  0.00    +0.000 C 
BRANCH   2   3
ATOM      3  CA  ARG B   1      -2.319  18.607  -6.866  0.00  0.00    +0.000 C 
BRANCH   3   4
ATOM      4  N   ARG B   1      -1.433  17.465  -7.102  0.00  0.00    +0.000 NA
ATOM      5  H   ARG B   1      -1.203  17.413  -8.094  0.00  0.00    +0.000 HD
ATOM      6  H   ARG B   1      -1.902  16.606  -6.816  0.00  0.00    +0.000 HD
ENDBRANCH   3   4
BRANCH   3   7
ATOM      7  C   ARG B   1      -1.645  19.911  -7.336  0.00  0.00    +0.000 C 
ATOM      8  OXT ARG B   1      -0.425  19.958  -7.546  0.00  0.00    +0.000 OA
BRANCH   7   9
ATOM      9  O   ARG B   1      -2.340  20.906  -7.522  0.00  0.00    +0.000 OA
ATOM     10  H   ARG B   1      -3.263  20.869  -7.363  0.00  0.00    +0.000 HD
ENDBRANCH   7   9
ENDBRANCH   3   7
ENDBRANCH   2   3
ENDBRANCH   1   2
BRANCH   1  11
ATOM     11  CD  ARG B   1      -1.831  19.261  -3.105  0.00  0.00    +0.000 C 
BRANCH  11  12
ATOM     12  NE  ARG B   1      -2.064  18.009  -2.361  0.00  0.00    +0.000 NA
ATOM     13  CZ  ARG B   1      -2.182  18.023  -1.033  0.00  0.00    +0.000 C 
ATOM     14  NH1 ARG B   1      -2.111  19.168  -0.374  0.00  0.00    +0.000 N 
ATOM     15  NH2 ARG B   1      -2.362  16.883  -0.410  0.00  0.00    +0.000 N 
ATOM     16  H   ARG B   1      -1.975  20.011  -0.865  0.00  0.00    +0.000 HD
ATOM     17  H   ARG B   1      -2.194  19.177   0.607  0.00  0.00    +0.000 HD
ATOM     18  H   ARG B   1      -2.411  16.044  -0.923  0.00  0.00    +0.000 HD
ATOM     19  H   ARG B   1      -2.448  16.866   0.571  0.00  0.00    +0.000 HD
ENDBRANCH  11  12
ENDBRANCH   1  11
TORSDOF 7
