REMARK  Name = /storage/kiran-stuff/aaRS/phase2/energy_scoring/vina_182jobs/modern_prors_GLU_GLU/ligand.h.pdb
REMARK  7 active torsions:
REMARK  status: ('A' for Active; 'I' for Inactive)
REMARK    1  A    between atoms: N_1  and  CA_2
REMARK    2  A    between atoms: CA_2  and  C_3
REMARK    3  A    between atoms: CA_2  and  CB_5
REMARK    4  A    between atoms: C_3  and  O_4
REMARK    5  A    between atoms: CB_5  and  CG_6
REMARK    6  A    between atoms: CG_6  and  CD_7
REMARK    7  A    between atoms: CD_7  and  OE1_8
REMARK                            x       y       z     vdW  Elec       q    Type
REMARK                         _______ _______ _______ _____ _____    ______ ____
ROOT
ATOM      1  CA  GLU B   1     -11.705   7.459   0.290  0.00  0.00    +0.000 C 
ENDROOT
BRANCH   1   2
ATOM      2  N   GLU B   1     -12.483   8.538  -0.338  0.00  0.00    +0.000 NA
ATOM      3  H   GLU B   1     -13.069   8.149  -1.076  0.00  0.00    +0.000 HD
ATOM      4  H   GLU B   1     -11.846   9.227  -0.737  0.00  0.00    +0.000 HD
ENDBRANCH   1   2
BRANCH   1   5
ATOM      5  C   GLU B   1     -10.830   8.026   1.389  0.00  0.00    +0.000 C 
ATOM      6  OXT GLU B   1     -10.182   9.063   1.189  0.00  0.00    +0.000 OA
BRANCH   5   7
ATOM      7  O   GLU B   1     -10.754   7.455   2.497  0.00  0.00    +0.000 OA
ATOM      8  H   GLU B   1     -11.241   6.670   2.654  0.00  0.00    +0.000 HD
ENDBRANCH   5   7
ENDBRANCH   1   5
BRANCH   1   9
ATOM      9  CB  GLU B   1     -10.855   6.763  -0.787  0.00  0.00    +0.000 C 
BRANCH   9  10
ATOM     10  CG  GLU B   1     -10.314   5.403  -0.381  0.00  0.00    +0.000 C 
BRANCH  10  11
ATOM     11  CD  GLU B   1      -8.802   5.353  -0.331  0.00  0.00    +0.000 C 
ATOM     12  OE2 GLU B   1      -8.216   4.646  -1.158  0.00  0.00    +0.000 OA
BRANCH  11  13
ATOM     13  OE1 GLU B   1      -8.188   6.018   0.518  0.00  0.00    +0.000 OA
ATOM     14  H   GLU B   1      -8.661   6.545   1.132  0.00  0.00    +0.000 HD
ENDBRANCH  11  13
ENDBRANCH  10  11
ENDBRANCH   9  10
ENDBRANCH   1   9
TORSDOF 7
