REMARK  Name = /storage/kiran-stuff/aaRS/phase2/energy_scoring/vina_182jobs/COMPETITION_modern_thrrs_THR_vs_SER_SER/ligand.h.pdb
REMARK  6 active torsions:
REMARK  status: ('A' for Active; 'I' for Inactive)
REMARK    1  A    between atoms: N_1  and  CA_2
REMARK    2  A    between atoms: CA_2  and  C_3
REMARK    3  A    between atoms: CA_2  and  CB_5
REMARK    4  A    between atoms: C_3  and  O_4
REMARK    5  A    between atoms: CB_5  and  OG1_6
REMARK    6  A    between atoms: CB_5  and  CG2_7
REMARK                            x       y       z     vdW  Elec       q    Type
REMARK                         _______ _______ _______ _____ _____    ______ ____
ROOT
ATOM      1  CA  THR B   1      -4.203   9.955  -8.552  0.00  0.00    +0.000 C 
ENDROOT
BRANCH   1   2
ATOM      2  N   THR B   1      -4.118  11.412  -8.764  0.00  0.00    +0.000 NA
ATOM      3  H   THR B   1      -3.276  11.630  -9.296  0.00  0.00    +0.000 HD
ATOM      4  H   THR B   1      -4.081  11.885  -7.861  0.00  0.00    +0.000 HD
ENDBRANCH   1   2
BRANCH   1   5
ATOM      5  C   THR B   1      -5.447   9.616  -7.764  0.00  0.00    +0.000 C 
ATOM      6  OXT THR B   1      -5.993   8.538  -7.958  0.00  0.00    +0.000 OA
BRANCH   5   7
ATOM      7  O   THR B   1      -5.841  10.399  -6.912  0.00  0.00    +0.000 OA
ATOM      8  H   THR B   1      -5.401  11.217  -6.788  0.00  0.00    +0.000 HD
ENDBRANCH   5   7
ENDBRANCH   1   5
BRANCH   1   9
ATOM      9  CB  THR B   1      -2.967   9.433  -7.855  0.00  0.00    +0.000 C 
ATOM     10  CG2 THR B   1      -2.857   7.926  -7.977  0.00  0.00    +0.000 C 
BRANCH   9  11
ATOM     11  OG1 THR B   1      -1.796  10.054  -8.404  0.00  0.00    +0.000 OA
ATOM     12  H   THR B   1      -1.724   9.833  -9.346  0.00  0.00    +0.000 HD
ENDBRANCH   9  11
ENDBRANCH   1   9
TORSDOF 5
