REMARK  Name = /storage/kiran-stuff/aaRS/phase2/energy_scoring/vina_182jobs/anc_prors_cat_MET_MET/ligand.h.pdb
REMARK  7 active torsions:
REMARK  status: ('A' for Active; 'I' for Inactive)
REMARK    1  A    between atoms: N_1  and  CA_2
REMARK    2  A    between atoms: CA_2  and  C_3
REMARK    3  A    between atoms: CA_2  and  CB_5
REMARK    4  A    between atoms: C_3  and  OXT_9
REMARK    5  A    between atoms: CB_5  and  CG_6
REMARK    6  A    between atoms: CG_6  and  SD_7
REMARK    7  A    between atoms: SD_7  and  CE_8
REMARK                            x       y       z     vdW  Elec       q    Type
REMARK                         _______ _______ _______ _____ _____    ______ ____
ROOT
ATOM      1  CA  MET B   1      -7.657   6.046  12.465  0.00  0.00    +0.000 C 
ENDROOT
BRANCH   1   2
ATOM      2  N   MET B   1      -9.106   6.208  12.367  0.00  0.00    +0.000 NA
ATOM      3  H   MET B   1      -9.335   6.718  11.514  0.00  0.00    +0.000 HD
ATOM      4  H   MET B   1      -9.446   6.727  13.176  0.00  0.00    +0.000 HD
ENDBRANCH   1   2
BRANCH   1   5
ATOM      5  C   MET B   1      -7.345   5.283  13.744  0.00  0.00    +0.000 C 
ATOM      6  O   MET B   1      -6.734   4.198  13.690  0.00  0.00    +0.000 OA
BRANCH   5   7
ATOM      7  OXT MET B   1      -7.720   5.725  14.832  0.00  0.00    +0.000 OA
ATOM      8  H   MET B   1      -8.178   6.541  14.873  0.00  0.00    +0.000 HD
ENDBRANCH   5   7
ENDBRANCH   1   5
BRANCH   1   9
ATOM      9  CB  MET B   1      -7.004   7.404  12.466  0.00  0.00    +0.000 C 
BRANCH   9  10
ATOM     10  CG  MET B   1      -5.504   7.394  12.690  0.00  0.00    +0.000 C 
BRANCH  10  11
ATOM     11  SD  MET B   1      -4.762   8.953  12.274  0.00  0.00    +0.000 S 
ATOM     12  CE  MET B   1      -3.451   9.107  13.473  0.00  0.00    +0.000 C 
ENDBRANCH  10  11
ENDBRANCH   9  10
ENDBRANCH   1   9
TORSDOF 6
