REMARK  Name = /storage/kiran-stuff/aaRS/phase2/energy_scoring/vina_182jobs/anc_thrrs_cat_zn_ARG_ARG/ligand.h.pdb
REMARK  7 active torsions:
REMARK  status: ('A' for Active; 'I' for Inactive)
REMARK    1  A    between atoms: N_1  and  CA_2
REMARK    2  A    between atoms: CA_2  and  C_3
REMARK    3  A    between atoms: CA_2  and  CB_5
REMARK    4  A    between atoms: C_3  and  OXT_12
REMARK    5  A    between atoms: CB_5  and  CG_6
REMARK    6  A    between atoms: CG_6  and  CD_7
REMARK    7  A    between atoms: CD_7  and  NE_8
REMARK                            x       y       z     vdW  Elec       q    Type
REMARK                         _______ _______ _______ _____ _____    ______ ____
ROOT
ATOM      1  CG  ARG B   1     -16.577  -4.252   4.597  0.00  0.00    +0.000 C 
ENDROOT
BRANCH   1   2
ATOM      2  CB  ARG B   1     -16.339  -3.039   5.470  0.00  0.00    +0.000 C 
BRANCH   2   3
ATOM      3  CA  ARG B   1     -16.243  -3.551   6.921  0.00  0.00    +0.000 C 
BRANCH   3   4
ATOM      4  N   ARG B   1     -17.408  -3.132   7.669  0.00  0.00    +0.000 NA
ATOM      5  H   ARG B   1     -18.251  -3.427   7.177  0.00  0.00    +0.000 HD
ATOM      6  H   ARG B   1     -17.406  -2.116   7.762  0.00  0.00    +0.000 HD
ENDBRANCH   3   4
BRANCH   3   7
ATOM      7  C   ARG B   1     -14.959  -3.143   7.597  0.00  0.00    +0.000 C 
ATOM      8  O   ARG B   1     -13.991  -2.808   6.943  0.00  0.00    +0.000 OA
BRANCH   7   9
ATOM      9  OXT ARG B   1     -14.876  -3.209   8.820  0.00  0.00    +0.000 OA
ATOM     10  H   ARG B   1     -15.620  -3.467   9.327  0.00  0.00    +0.000 HD
ENDBRANCH   7   9
ENDBRANCH   3   7
ENDBRANCH   2   3
ENDBRANCH   1   2
BRANCH   1  11
ATOM     11  CD  ARG B   1     -16.950  -4.006   3.164  0.00  0.00    +0.000 C 
BRANCH  11  12
ATOM     12  NE  ARG B   1     -16.960  -5.350   2.567  0.00  0.00    +0.000 NA
ATOM     13  CZ  ARG B   1     -17.532  -5.685   1.424  0.00  0.00    +0.000 C 
ATOM     14  NH1 ARG B   1     -18.183  -4.773   0.697  0.00  0.00    +0.000 N 
ATOM     15  NH2 ARG B   1     -17.450  -6.938   1.011  0.00  0.00    +0.000 N 
ATOM     16  H   ARG B   1     -18.606  -5.032  -0.153  0.00  0.00    +0.000 HD
ATOM     17  H   ARG B   1     -18.240  -3.843   1.011  0.00  0.00    +0.000 HD
ATOM     18  H   ARG B   1     -17.870  -7.206   0.162  0.00  0.00    +0.000 HD
ATOM     19  H   ARG B   1     -16.970  -7.605   1.553  0.00  0.00    +0.000 HD
ENDBRANCH  11  12
ENDBRANCH   1  11
TORSDOF 7
