REMARK  Name = /storage/kiran-stuff/aaRS/phase2/energy_scoring/vina_182jobs/anc_thrrs_cat_zn_ARG_ARG/ligand.h.pdb
REMARK  7 active torsions:
REMARK  status: ('A' for Active; 'I' for Inactive)
REMARK    1  A    between atoms: N_1  and  CA_2
REMARK    2  A    between atoms: CA_2  and  C_3
REMARK    3  A    between atoms: CA_2  and  CB_5
REMARK    4  A    between atoms: C_3  and  OXT_12
REMARK    5  A    between atoms: CB_5  and  CG_6
REMARK    6  A    between atoms: CG_6  and  CD_7
REMARK    7  A    between atoms: CD_7  and  NE_8
REMARK                            x       y       z     vdW  Elec       q    Type
REMARK                         _______ _______ _______ _____ _____    ______ ____
ROOT
ATOM      1  CG  ARG B   1     -16.673  -4.251   4.677  0.00  0.00    +0.000 C 
ENDROOT
BRANCH   1   2
ATOM      2  CB  ARG B   1     -16.495  -3.044   5.573  0.00  0.00    +0.000 C 
BRANCH   2   3
ATOM      3  CA  ARG B   1     -16.492  -3.567   7.023  0.00  0.00    +0.000 C 
BRANCH   3   4
ATOM      4  N   ARG B   1     -17.729  -3.204   7.680  0.00  0.00    +0.000 NA
ATOM      5  H   ARG B   1     -18.518  -3.528   7.121  0.00  0.00    +0.000 HD
ATOM      6  H   ARG B   1     -17.776  -2.190   7.780  0.00  0.00    +0.000 HD
ENDBRANCH   3   4
BRANCH   3   7
ATOM      7  C   ARG B   1     -15.283  -3.115   7.801  0.00  0.00    +0.000 C 
ATOM      8  O   ARG B   1     -14.228  -2.898   7.239  0.00  0.00    +0.000 OA
BRANCH   7   9
ATOM      9  OXT ARG B   1     -15.354  -3.023   9.023  0.00  0.00    +0.000 OA
ATOM     10  H   ARG B   1     -16.166  -3.190   9.459  0.00  0.00    +0.000 HD
ENDBRANCH   7   9
ENDBRANCH   3   7
ENDBRANCH   2   3
ENDBRANCH   1   2
BRANCH   1  11
ATOM     11  CD  ARG B   1     -16.893  -3.995   3.214  0.00  0.00    +0.000 C 
BRANCH  11  12
ATOM     12  NE  ARG B   1     -16.882  -5.339   2.616  0.00  0.00    +0.000 NA
ATOM     13  CZ  ARG B   1     -17.159  -5.628   1.357  0.00  0.00    +0.000 C 
ATOM     14  NH1 ARG B   1     -17.493  -4.664   0.496  0.00  0.00    +0.000 N 
ATOM     15  NH2 ARG B   1     -17.101  -6.889   0.963  0.00  0.00    +0.000 N 
ATOM     16  H   ARG B   1     -17.698  -4.889  -0.440  0.00  0.00    +0.000 HD
ATOM     17  H   ARG B   1     -17.535  -3.728   0.797  0.00  0.00    +0.000 HD
ATOM     18  H   ARG B   1     -17.304  -7.123   0.028  0.00  0.00    +0.000 HD
ATOM     19  H   ARG B   1     -16.855  -7.594   1.604  0.00  0.00    +0.000 HD
ENDBRANCH  11  12
ENDBRANCH   1  11
TORSDOF 7
