REMARK  Name = /storage/kiran-stuff/aaRS/phase2/energy_scoring/vina_182jobs/modern_thrrs_ecoli_zn_PHE_PHE/ligand.h.pdb
REMARK  5 active torsions:
REMARK  status: ('A' for Active; 'I' for Inactive)
REMARK    1  A    between atoms: N_1  and  CA_2
REMARK    2  A    between atoms: CA_2  and  C_3
REMARK    3  A    between atoms: CA_2  and  CB_5
REMARK    4  A    between atoms: C_3  and  OXT_12
REMARK    5  A    between atoms: CB_5  and  CG_6
REMARK                            x       y       z     vdW  Elec       q    Type
REMARK                         _______ _______ _______ _____ _____    ______ ____
ROOT
ATOM      1  CA  PHE B   1      -8.679  -4.377   9.794  0.00  0.00    +0.000 C 
ENDROOT
BRANCH   1   2
ATOM      2  N   PHE B   1      -9.308  -3.076   9.653  0.00  0.00    +0.000 NA
ATOM      3  H   PHE B   1      -9.943  -3.091   8.855  0.00  0.00    +0.000 HD
ATOM      4  H   PHE B   1      -8.591  -2.366   9.504  0.00  0.00    +0.000 HD
ENDBRANCH   1   2
BRANCH   1   5
ATOM      5  C   PHE B   1      -7.716  -4.482  10.942  0.00  0.00    +0.000 C 
ATOM      6  O   PHE B   1      -6.662  -3.843  10.930  0.00  0.00    +0.000 OA
BRANCH   5   7
ATOM      7  OXT PHE B   1      -7.957  -5.262  11.866  0.00  0.00    +0.000 OA
ATOM      8  H   PHE B   1      -8.758  -5.747  11.873  0.00  0.00    +0.000 HD
ENDBRANCH   5   7
ENDBRANCH   1   5
BRANCH   1   9
ATOM      9  CB  PHE B   1      -7.905  -4.693   8.559  0.00  0.00    +0.000 C 
BRANCH   9  10
ATOM     10  CG  PHE B   1      -8.185  -6.077   8.101  0.00  0.00    +0.000 A 
ATOM     11  CD1 PHE B   1      -8.092  -6.387   6.776  0.00  0.00    +0.000 A 
ATOM     12  CD2 PHE B   1      -8.553  -7.051   9.015  0.00  0.00    +0.000 A 
ATOM     13  CE1 PHE B   1      -8.387  -7.677   6.364  0.00  0.00    +0.000 A 
ATOM     14  CE2 PHE B   1      -8.828  -8.327   8.594  0.00  0.00    +0.000 A 
ATOM     15  CZ  PHE B   1      -8.748  -8.645   7.265  0.00  0.00    +0.000 A 
ENDBRANCH   9  10
ENDBRANCH   1   9
TORSDOF 5
