REMARK  Name = /storage/kiran-stuff/aaRS/phase2/energy_scoring/vina_182jobs/modern_thrrs_ecoli_zn_PHE_PHE/ligand.h.pdb
REMARK  5 active torsions:
REMARK  status: ('A' for Active; 'I' for Inactive)
REMARK    1  A    between atoms: N_1  and  CA_2
REMARK    2  A    between atoms: CA_2  and  C_3
REMARK    3  A    between atoms: CA_2  and  CB_5
REMARK    4  A    between atoms: C_3  and  OXT_12
REMARK    5  A    between atoms: CB_5  and  CG_6
REMARK                            x       y       z     vdW  Elec       q    Type
REMARK                         _______ _______ _______ _____ _____    ______ ____
ROOT
ATOM      1  CA  PHE B   1      -8.713  -4.550   9.839  0.00  0.00    +0.000 C 
ENDROOT
BRANCH   1   2
ATOM      2  N   PHE B   1      -9.358  -3.253   9.926  0.00  0.00    +0.000 NA
ATOM      3  H   PHE B   1     -10.021  -3.151   9.157  0.00  0.00    +0.000 HD
ATOM      4  H   PHE B   1      -8.653  -2.518   9.867  0.00  0.00    +0.000 HD
ENDBRANCH   1   2
BRANCH   1   5
ATOM      5  C   PHE B   1      -7.709  -4.821  10.923  0.00  0.00    +0.000 C 
ATOM      6  O   PHE B   1      -6.707  -4.111  11.034  0.00  0.00    +0.000 OA
BRANCH   5   7
ATOM      7  OXT PHE B   1      -7.861  -5.797  11.661  0.00  0.00    +0.000 OA
ATOM      8  H   PHE B   1      -8.623  -6.335  11.575  0.00  0.00    +0.000 HD
ENDBRANCH   5   7
ENDBRANCH   1   5
BRANCH   1   9
ATOM      9  CB  PHE B   1      -7.980  -4.657   8.544  0.00  0.00    +0.000 C 
BRANCH   9  10
ATOM     10  CG  PHE B   1      -8.150  -6.008   7.952  0.00  0.00    +0.000 A 
ATOM     11  CD1 PHE B   1      -8.149  -6.161   6.597  0.00  0.00    +0.000 A 
ATOM     12  CD2 PHE B   1      -8.323  -7.110   8.773  0.00  0.00    +0.000 A 
ATOM     13  CE1 PHE B   1      -8.340  -7.426   6.062  0.00  0.00    +0.000 A 
ATOM     14  CE2 PHE B   1      -8.497  -8.358   8.230  0.00  0.00    +0.000 A 
ATOM     15  CZ  PHE B   1      -8.508  -8.520   6.870  0.00  0.00    +0.000 A 
ENDBRANCH   9  10
ENDBRANCH   1   9
TORSDOF 5
