REMARK  Name = /storage/kiran-stuff/aaRS/phase2/energy_scoring/vina_182jobs/modern_thrrs_ecoli_zn_LEU_LEU/ligand.h.pdb
REMARK  7 active torsions:
REMARK  status: ('A' for Active; 'I' for Inactive)
REMARK    1  A    between atoms: N_1  and  CA_2
REMARK    2  A    between atoms: CA_2  and  C_3
REMARK    3  A    between atoms: CA_2  and  CB_5
REMARK    4  A    between atoms: C_3  and  OXT_9
REMARK    5  A    between atoms: CB_5  and  CG_6
REMARK    6  A    between atoms: CG_6  and  CD1_7
REMARK    7  A    between atoms: CG_6  and  CD2_8
REMARK                            x       y       z     vdW  Elec       q    Type
REMARK                         _______ _______ _______ _____ _____    ______ ____
ROOT
ATOM      1  CA  LEU B   1      -9.173  -4.562   9.724  0.00  0.00    +0.000 C 
ENDROOT
BRANCH   1   2
ATOM      2  N   LEU B   1     -10.197  -3.507   9.701  0.00  0.00    +0.000 NA
ATOM      3  H   LEU B   1     -10.918  -3.748   9.021  0.00  0.00    +0.000 HD
ATOM      4  H   LEU B   1      -9.766  -2.620   9.439  0.00  0.00    +0.000 HD
ENDBRANCH   1   2
BRANCH   1   5
ATOM      5  C   LEU B   1      -8.077  -4.256  10.716  0.00  0.00    +0.000 C 
ATOM      6  O   LEU B   1      -7.705  -3.084  10.886  0.00  0.00    +0.000 OA
BRANCH   5   7
ATOM      7  OXT LEU B   1      -7.521  -5.195  11.326  0.00  0.00    +0.000 OA
ATOM      8  H   LEU B   1      -7.809  -6.077  11.191  0.00  0.00    +0.000 HD
ENDBRANCH   5   7
ENDBRANCH   1   5
BRANCH   1   9
ATOM      9  CB  LEU B   1      -8.548  -4.674   8.333  0.00  0.00    +0.000 C 
BRANCH   9  10
ATOM     10  CG  LEU B   1      -9.339  -5.559   7.375  0.00  0.00    +0.000 C 
ATOM     11  CD1 LEU B   1      -8.716  -5.472   5.987  0.00  0.00    +0.000 C 
ATOM     12  CD2 LEU B   1      -9.357  -6.996   7.883  0.00  0.00    +0.000 C 
ENDBRANCH   9  10
ENDBRANCH   1   9
TORSDOF 5
