REMARK  Name = /storage/kiran-stuff/aaRS/phase2/energy_scoring/vina_182jobs/modern_thrrs_ecoli_zn_TRP_TRP/ligand.h.pdb
REMARK  5 active torsions:
REMARK  status: ('A' for Active; 'I' for Inactive)
REMARK    1  A    between atoms: N_1  and  CA_2
REMARK    2  A    between atoms: CA_2  and  C_3
REMARK    3  A    between atoms: CA_2  and  CB_5
REMARK    4  A    between atoms: C_3  and  OXT_15
REMARK    5  A    between atoms: CB_5  and  CG_6
REMARK                            x       y       z     vdW  Elec       q    Type
REMARK                         _______ _______ _______ _____ _____    ______ ____
ROOT
ATOM      1  CB  TRP B   1      -8.753  -5.010  10.492  0.00  0.00    +0.000 C 
ENDROOT
BRANCH   1   2
ATOM      2  CG  TRP B   1      -8.401  -5.294   9.110  0.00  0.00    +0.000 C 
ATOM      3  CD1 TRP B   1      -8.019  -4.462   8.100  0.00  0.00    +0.000 C 
ATOM      4  CD2 TRP B   1      -8.463  -6.555   8.563  0.00  0.00    +0.000 A 
ATOM      5  NE1 TRP B   1      -7.864  -5.155   6.978  0.00  0.00    +0.000 NA
ATOM      6  CE2 TRP B   1      -8.131  -6.449   7.218  0.00  0.00    +0.000 A 
ATOM      7  CE3 TRP B   1      -8.785  -7.776   9.126  0.00  0.00    +0.000 A 
ATOM      8  CZ2 TRP B   1      -8.135  -7.564   6.398  0.00  0.00    +0.000 A 
ATOM      9  CZ3 TRP B   1      -8.774  -8.887   8.303  0.00  0.00    +0.000 A 
ATOM     10  CH2 TRP B   1      -8.471  -8.782   6.969  0.00  0.00    +0.000 A 
ENDBRANCH   1   2
BRANCH   1  11
ATOM     11  CA  TRP B   1      -7.812  -4.137  11.206  0.00  0.00    +0.000 C 
BRANCH  11  12
ATOM     12  N   TRP B   1      -7.498  -3.037  10.299  0.00  0.00    +0.000 NA
ATOM     13  H   TRP B   1      -8.351  -2.524  10.077  0.00  0.00    +0.000 HD
ATOM     14  H   TRP B   1      -7.092  -3.410   9.441  0.00  0.00    +0.000 HD
ENDBRANCH  11  12
BRANCH  11  15
ATOM     15  C   TRP B   1      -6.614  -4.957  11.593  0.00  0.00    +0.000 C 
ATOM     16  O   TRP B   1      -5.595  -4.916  10.904  0.00  0.00    +0.000 OA
BRANCH  15  17
ATOM     17  OXT TRP B   1      -6.692  -5.651  12.616  0.00  0.00    +0.000 OA
ATOM     18  H   TRP B   1      -7.483  -5.659  13.118  0.00  0.00    +0.000 HD
ENDBRANCH  15  17
ENDBRANCH  11  15
ENDBRANCH   1  11
TORSDOF 5
