REMARK  Name = /storage/kiran-stuff/aaRS/phase2/energy_scoring/vina_182jobs/modern_thrrs_ecoli_zn_TRP_TRP/ligand.h.pdb
REMARK  5 active torsions:
REMARK  status: ('A' for Active; 'I' for Inactive)
REMARK    1  A    between atoms: N_1  and  CA_2
REMARK    2  A    between atoms: CA_2  and  C_3
REMARK    3  A    between atoms: CA_2  and  CB_5
REMARK    4  A    between atoms: C_3  and  OXT_15
REMARK    5  A    between atoms: CB_5  and  CG_6
REMARK                            x       y       z     vdW  Elec       q    Type
REMARK                         _______ _______ _______ _____ _____    ______ ____
ROOT
ATOM      1  CB  TRP B   1      -8.852  -5.333  10.543  0.00  0.00    +0.000 C 
ENDROOT
BRANCH   1   2
ATOM      2  CG  TRP B   1      -8.273  -5.407   9.212  0.00  0.00    +0.000 C 
ATOM      3  CD1 TRP B   1      -7.646  -4.458   8.460  0.00  0.00    +0.000 C 
ATOM      4  CD2 TRP B   1      -8.330  -6.537   8.429  0.00  0.00    +0.000 A 
ATOM      5  NE1 TRP B   1      -7.340  -4.955   7.268  0.00  0.00    +0.000 NA
ATOM      6  CE2 TRP B   1      -7.747  -6.233   7.205  0.00  0.00    +0.000 A 
ATOM      7  CE3 TRP B   1      -8.845  -7.794   8.683  0.00  0.00    +0.000 A 
ATOM      8  CZ2 TRP B   1      -7.685  -7.179   6.196  0.00  0.00    +0.000 A 
ATOM      9  CZ3 TRP B   1      -8.768  -8.737   7.675  0.00  0.00    +0.000 A 
ATOM     10  CH2 TRP B   1      -8.215  -8.433   6.457  0.00  0.00    +0.000 A 
ENDBRANCH   1   2
BRANCH   1  11
ATOM     11  CA  TRP B   1      -8.197  -4.385  11.454  0.00  0.00    +0.000 C 
BRANCH  11  12
ATOM     12  N   TRP B   1      -8.251  -3.080  10.803  0.00  0.00    +0.000 NA
ATOM     13  H   TRP B   1      -9.225  -2.811  10.660  0.00  0.00    +0.000 HD
ATOM     14  H   TRP B   1      -7.776  -3.130   9.902  0.00  0.00    +0.000 HD
ENDBRANCH  11  12
BRANCH  11  15
ATOM     15  C   TRP B   1      -6.798  -4.871  11.709  0.00  0.00    +0.000 C 
ATOM     16  O   TRP B   1      -5.848  -4.325  11.148  0.00  0.00    +0.000 OA
BRANCH  15  17
ATOM     17  OXT TRP B   1      -6.646  -5.816  12.495  0.00  0.00    +0.000 OA
ATOM     18  H   TRP B   1      -7.391  -6.209  12.905  0.00  0.00    +0.000 HD
ENDBRANCH  15  17
ENDBRANCH  11  15
ENDBRANCH   1  11
TORSDOF 5
