REMARK  Name = /storage/kiran-stuff/aaRS/phase2/energy_scoring/vina_182jobs/modern_thrrs_ecoli_zn_SER_SER/ligand.h.pdb
REMARK  5 active torsions:
REMARK  status: ('A' for Active; 'I' for Inactive)
REMARK    1  A    between atoms: N_1  and  CA_2
REMARK    2  A    between atoms: CA_2  and  C_3
REMARK    3  A    between atoms: CA_2  and  CB_5
REMARK    4  A    between atoms: C_3  and  O_4
REMARK    5  A    between atoms: CB_5  and  OG_6
REMARK                            x       y       z     vdW  Elec       q    Type
REMARK                         _______ _______ _______ _____ _____    ______ ____
ROOT
ATOM      1  CA  SER B   1      -2.290   1.684  10.646  0.00  0.00    +0.000 C 
ENDROOT
BRANCH   1   2
ATOM      2  N   SER B   1      -2.275   1.570  12.105  0.00  0.00    +0.000 NA
ATOM      3  H   SER B   1      -1.389   1.925  12.465  0.00  0.00    +0.000 HD
ATOM      4  H   SER B   1      -2.382   0.590  12.370  0.00  0.00    +0.000 HD
ENDBRANCH   1   2
BRANCH   1   5
ATOM      5  C   SER B   1      -3.588   1.168  10.078  0.00  0.00    +0.000 C 
ATOM      6  OXT SER B   1      -3.931   1.553   8.941  0.00  0.00    +0.000 OA
BRANCH   5   7
ATOM      7  O   SER B   1      -4.249   0.339  10.710  0.00  0.00    +0.000 OA
ATOM      8  H   SER B   1      -3.968   0.067  11.562  0.00  0.00    +0.000 HD
ENDBRANCH   5   7
ENDBRANCH   1   5
BRANCH   1   9
ATOM      9  CB  SER B   1      -1.128   0.904  10.070  0.00  0.00    +0.000 C 
BRANCH   9  10
ATOM     10  OG  SER B   1       0.064   1.135  10.725  0.00  0.00    +0.000 OA
ATOM     11  H   SER B   1      -0.015   0.852  11.650  0.00  0.00    +0.000 HD
ENDBRANCH   9  10
ENDBRANCH   1   9
TORSDOF 5
