REMARK  Name = /storage/kiran-stuff/aaRS/phase2/energy_scoring/vina_182jobs/modern_prors_THR_THR/ligand.h.pdb
REMARK  6 active torsions:
REMARK  status: ('A' for Active; 'I' for Inactive)
REMARK    1  A    between atoms: N_1  and  CA_2
REMARK    2  A    between atoms: CA_2  and  C_3
REMARK    3  A    between atoms: CA_2  and  CB_5
REMARK    4  A    between atoms: C_3  and  O_4
REMARK    5  A    between atoms: CB_5  and  OG1_6
REMARK    6  A    between atoms: CB_5  and  CG2_7
REMARK                            x       y       z     vdW  Elec       q    Type
REMARK                         _______ _______ _______ _____ _____    ______ ____
ROOT
ATOM      1  CA  THR B   1      11.508   1.943   1.670  0.00  0.00    +0.000 C 
ENDROOT
BRANCH   1   2
ATOM      2  N   THR B   1      12.694   2.793   1.897  0.00  0.00    +0.000 NA
ATOM      3  H   THR B   1      12.577   3.678   1.404  0.00  0.00    +0.000 HD
ATOM      4  H   THR B   1      13.526   2.317   1.548  0.00  0.00    +0.000 HD
ENDBRANCH   1   2
BRANCH   1   5
ATOM      5  C   THR B   1      10.245   2.632   2.165  0.00  0.00    +0.000 C 
ATOM      6  OXT THR B   1       9.145   2.128   1.871  0.00  0.00    +0.000 OA
BRANCH   5   7
ATOM      7  O   THR B   1      10.314   3.644   2.877  0.00  0.00    +0.000 OA
ATOM      8  H   THR B   1      11.149   4.011   3.089  0.00  0.00    +0.000 HD
ENDBRANCH   5   7
ENDBRANCH   1   5
BRANCH   1   9
ATOM      9  CB  THR B   1      11.674   0.617   2.403  0.00  0.00    +0.000 C 
ATOM     10  CG2 THR B   1      12.783  -0.208   1.775  0.00  0.00    +0.000 C 
BRANCH   9  11
ATOM     11  OG1 THR B   1      11.970   0.879   3.769  0.00  0.00    +0.000 OA
ATOM     12  H   THR B   1      12.795   1.386   3.830  0.00  0.00    +0.000 HD
ENDBRANCH   9  11
ENDBRANCH   1   9
TORSDOF 5
