REMARK  Name = /storage/kiran-stuff/aaRS/phase2/energy_scoring/vina_182jobs/deep_editing_pro_PRO/ligand.h.pdb
REMARK  2 active torsions:
REMARK  status: ('A' for Active; 'I' for Inactive)
REMARK    1  A    between atoms: CA_2  and  C_3
REMARK    2  A    between atoms: C_3  and  O_4
REMARK                            x       y       z     vdW  Elec       q    Type
REMARK                         _______ _______ _______ _____ _____    ______ ____
ROOT
ATOM      1  N   PRO C   1       8.833  53.039  46.617  0.00  0.00    +0.000 NA
ATOM      2  CA  PRO C   1       9.135  52.557  47.951  0.00  0.00    +0.000 C 
ATOM      3  CB  PRO C   1       9.861  53.686  48.594  0.00  0.00    +0.000 C 
ATOM      4  CG  PRO C   1      10.390  54.500  47.549  0.00  0.00    +0.000 C 
ATOM      5  CD  PRO C   1       9.717  54.103  46.312  0.00  0.00    +0.000 C 
ATOM      6  H   PRO C   1       8.957  52.284  45.942  0.00  0.00    +0.000 HD
ENDROOT
BRANCH   2   7
ATOM      7  C   PRO C   1       7.912  52.103  48.732  0.00  0.00    +0.000 C 
ATOM      8  OXT PRO C   1       6.796  52.285  48.259  0.00  0.00    +0.000 OA
BRANCH   7   9
ATOM      9  O   PRO C   1       8.067  51.623  49.860  0.00  0.00    +0.000 OA
ATOM     10  H   PRO C   1       8.931  51.494  50.199  0.00  0.00    +0.000 HD
ENDBRANCH   7   9
ENDBRANCH   2   7
TORSDOF 2
