REMARK  Name = /storage/kiran-stuff/aaRS/phase2/energy_scoring/vina_182jobs/deep_editing_pro_PRO/ligand.h.pdb
REMARK  2 active torsions:
REMARK  status: ('A' for Active; 'I' for Inactive)
REMARK    1  A    between atoms: CA_2  and  C_3
REMARK    2  A    between atoms: C_3  and  O_4
REMARK                            x       y       z     vdW  Elec       q    Type
REMARK                         _______ _______ _______ _____ _____    ______ ____
ROOT
ATOM      1  N   PRO C   1       7.383  51.865  48.772  0.00  0.00    +0.000 NA
ATOM      2  CA  PRO C   1       6.231  51.273  49.425  0.00  0.00    +0.000 C 
ATOM      3  CB  PRO C   1       6.227  51.879  50.784  0.00  0.00    +0.000 C 
ATOM      4  CG  PRO C   1       7.552  52.340  51.047  0.00  0.00    +0.000 C 
ATOM      5  CD  PRO C   1       8.264  52.353  49.768  0.00  0.00    +0.000 C 
ATOM      6  H   PRO C   1       7.858  51.161  48.207  0.00  0.00    +0.000 HD
ENDROOT
BRANCH   2   7
ATOM      7  C   PRO C   1       4.926  51.475  48.671  0.00  0.00    +0.000 C 
ATOM      8  OXT PRO C   1       4.936  52.081  47.605  0.00  0.00    +0.000 OA
BRANCH   7   9
ATOM      9  O   PRO C   1       3.872  51.085  49.184  0.00  0.00    +0.000 OA
ATOM     10  H   PRO C   1       3.891  50.624  50.000  0.00  0.00    +0.000 HD
ENDBRANCH   7   9
ENDBRANCH   2   7
TORSDOF 2
