REMARK  Name = /storage/kiran-stuff/aaRS/phase2/energy_scoring/vina_182jobs/anc_prors_edit_THR_THR/ligand.h.pdb
REMARK  6 active torsions:
REMARK  status: ('A' for Active; 'I' for Inactive)
REMARK    1  A    between atoms: N_1  and  CA_2
REMARK    2  A    between atoms: CA_2  and  C_3
REMARK    3  A    between atoms: CA_2  and  CB_5
REMARK    4  A    between atoms: C_3  and  OXT_8
REMARK    5  A    between atoms: CB_5  and  OG1_6
REMARK    6  A    between atoms: CB_5  and  CG2_7
REMARK                            x       y       z     vdW  Elec       q    Type
REMARK                         _______ _______ _______ _____ _____    ______ ____
ROOT
ATOM      1  CA  THR B   1      11.156 -10.851 -11.926  0.00  0.00    +0.000 C 
ENDROOT
BRANCH   1   2
ATOM      2  N   THR B   1      10.009  -9.984 -11.673  0.00  0.00    +0.000 NA
ATOM      3  H   THR B   1       9.261 -10.209 -12.329  0.00  0.00    +0.000 HD
ATOM      4  H   THR B   1      10.285  -9.010 -11.793  0.00  0.00    +0.000 HD
ENDBRANCH   1   2
BRANCH   1   5
ATOM      5  C   THR B   1      10.792 -12.318 -11.836  0.00  0.00    +0.000 C 
ATOM      6  O   THR B   1      11.286 -13.102 -12.666  0.00  0.00    +0.000 OA
BRANCH   5   7
ATOM      7  OXT THR B   1      10.032 -12.727 -10.961  0.00  0.00    +0.000 OA
ATOM      8  H   THR B   1       9.666 -12.127 -10.341  0.00  0.00    +0.000 HD
ENDBRANCH   5   7
ENDBRANCH   1   5
BRANCH   1   9
ATOM      9  CB  THR B   1      12.268 -10.506 -10.939  0.00  0.00    +0.000 C 
ATOM     10  CG2 THR B   1      12.076 -11.198  -9.626  0.00  0.00    +0.000 C 
BRANCH   9  11
ATOM     11  OG1 THR B   1      12.304  -9.077 -10.793  0.00  0.00    +0.000 OA
ATOM     12  H   THR B   1      11.451  -8.766 -10.452  0.00  0.00    +0.000 HD
ENDBRANCH   9  11
ENDBRANCH   1   9
TORSDOF 5
