REMARK  Name = /storage/kiran-stuff/aaRS/phase2/energy_scoring/vina_182jobs/anc_prors_edit_THR_THR/ligand.h.pdb
REMARK  6 active torsions:
REMARK  status: ('A' for Active; 'I' for Inactive)
REMARK    1  A    between atoms: N_1  and  CA_2
REMARK    2  A    between atoms: CA_2  and  C_3
REMARK    3  A    between atoms: CA_2  and  CB_5
REMARK    4  A    between atoms: C_3  and  OXT_8
REMARK    5  A    between atoms: CB_5  and  OG1_6
REMARK    6  A    between atoms: CB_5  and  CG2_7
REMARK                            x       y       z     vdW  Elec       q    Type
REMARK                         _______ _______ _______ _____ _____    ______ ____
ROOT
ATOM      1  CA  THR B   1      10.932 -11.120 -11.923  0.00  0.00    +0.000 C 
ENDROOT
BRANCH   1   2
ATOM      2  N   THR B   1       9.746 -10.743 -11.159  0.00  0.00    +0.000 NA
ATOM      3  H   THR B   1       8.921 -11.172 -11.578  0.00  0.00    +0.000 HD
ATOM      4  H   THR B   1       9.643  -9.728 -11.169  0.00  0.00    +0.000 HD
ENDBRANCH   1   2
BRANCH   1   5
ATOM      5  C   THR B   1      11.100 -12.622 -12.009  0.00  0.00    +0.000 C 
ATOM      6  O   THR B   1      11.715 -13.093 -12.983  0.00  0.00    +0.000 OA
BRANCH   5   7
ATOM      7  OXT THR B   1      10.646 -13.359 -11.137  0.00  0.00    +0.000 OA
ATOM      8  H   THR B   1      10.185 -12.993 -10.408  0.00  0.00    +0.000 HD
ENDBRANCH   5   7
ENDBRANCH   1   5
BRANCH   1   9
ATOM      9  CB  THR B   1      12.159 -10.472 -11.287  0.00  0.00    +0.000 C 
ATOM     10  CG2 THR B   1      12.303 -10.855  -9.847  0.00  0.00    +0.000 C 
BRANCH   9  11
ATOM     11  OG1 THR B   1      12.048  -9.050 -11.456  0.00  0.00    +0.000 OA
ATOM     12  H   THR B   1      11.243  -8.734 -11.017  0.00  0.00    +0.000 HD
ENDBRANCH   9  11
ENDBRANCH   1   9
TORSDOF 5
