REMARK  Name = /storage/kiran-stuff/aaRS/phase2/energy_scoring/vina_182jobs/deep_editing_thr_THR/ligand.h.pdb
REMARK  6 active torsions:
REMARK  status: ('A' for Active; 'I' for Inactive)
REMARK    1  A    between atoms: N_1  and  CA_2
REMARK    2  A    between atoms: CA_2  and  C_3
REMARK    3  A    between atoms: CA_2  and  CB_5
REMARK    4  A    between atoms: C_3  and  OXT_8
REMARK    5  A    between atoms: CB_5  and  OG1_6
REMARK    6  A    between atoms: CB_5  and  CG2_7
REMARK                            x       y       z     vdW  Elec       q    Type
REMARK                         _______ _______ _______ _____ _____    ______ ____
ROOT
ATOM      1  CA  THR C   1      -9.335  13.226 -45.661  0.00  0.00    +0.000 C 
ENDROOT
BRANCH   1   2
ATOM      2  N   THR C   1      -8.734  13.507 -46.954  0.00  0.00    +0.000 NA
ATOM      3  H   THR C   1      -9.178  12.930 -47.669  0.00  0.00    +0.000 HD
ATOM      4  H   THR C   1      -7.737  13.295 -46.919  0.00  0.00    +0.000 HD
ENDBRANCH   1   2
BRANCH   1   5
ATOM      5  C   THR C   1     -10.824  13.487 -45.660  0.00  0.00    +0.000 C 
ATOM      6  O   THR C   1     -11.355  13.991 -46.648  0.00  0.00    +0.000 OA
BRANCH   5   7
ATOM      7  OXT THR C   1     -11.505  13.160 -44.663  0.00  0.00    +0.000 OA
ATOM      8  H   THR C   1     -11.088  12.777 -43.917  0.00  0.00    +0.000 HD
ENDBRANCH   5   7
ENDBRANCH   1   5
BRANCH   1   9
ATOM      9  CB  THR C   1      -8.669  14.091 -44.587  0.00  0.00    +0.000 C 
ATOM     10  CG2 THR C   1      -8.081  15.339 -45.201  0.00  0.00    +0.000 C 
BRANCH   9  11
ATOM     11  OG1 THR C   1      -7.650  13.329 -43.957  0.00  0.00    +0.000 OA
ATOM     12  H   THR C   1      -6.991  13.061 -44.617  0.00  0.00    +0.000 HD
ENDBRANCH   9  11
ENDBRANCH   1   9
TORSDOF 5
