REMARK  Name = /storage/kiran-stuff/aaRS/phase2/energy_scoring/vina_182jobs/deep_editing_thr_THR/ligand.h.pdb
REMARK  628 active torsions:
REMARK  status: ('A' for Active; 'I' for Inactive)
REMARK    1  A    between atoms: OP3_1  and  P_2
REMARK    2  A    between atoms: P_2  and  OP1_3
REMARK    3  A    between atoms: P_2  and  O5'_5
REMARK    4  A    between atoms: O5'_5  and  C5'_6
REMARK    5  A    between atoms: C5'_6  and  C4'_7
REMARK    6  A    between atoms: C3'_9  and  O3'_10
REMARK    7  A    between atoms: O3'_10  and  P_22
REMARK    8  A    between atoms: C2'_11  and  O2'_12
REMARK    9  A    between atoms: C1'_13  and  N1_14
REMARK   10  A    between atoms: P_22  and  OP1_23
REMARK   11  A    between atoms: P_22  and  O5'_25
REMARK   12  A    between atoms: O5'_25  and  C5'_26
REMARK   13  A    between atoms: C5'_26  and  C4'_27
REMARK   14  A    between atoms: C3'_29  and  O3'_30
REMARK   15  A    between atoms: O3'_30  and  P_42
REMARK   16  A    between atoms: C2'_31  and  O2'_32
REMARK   17  A    between atoms: C1'_33  and  N1_34
REMARK   18  A    between atoms: P_42  and  OP1_43
REMARK   19  A    between atoms: P_42  and  O5'_45
REMARK   20  A    between atoms: O5'_45  and  C5'_46
REMARK   21  A    between atoms: C5'_46  and  C4'_47
REMARK   22  A    between atoms: C3'_49  and  O3'_50
REMARK   23  A    between atoms: O3'_50  and  P_64
REMARK   24  A    between atoms: C2'_51  and  O2'_52
REMARK   25  A    between atoms: C1'_53  and  N9_54
REMARK   26  A    between atoms: C6_58  and  N6_59
REMARK   27  A    between atoms: P_64  and  OP1_65
REMARK   28  A    between atoms: P_64  and  O5'_67
REMARK   29  A    between atoms: O5'_67  and  C5'_68
REMARK   30  A    between atoms: C5'_68  and  C4'_69
REMARK   31  A    between atoms: C3'_71  and  O3'_72
REMARK   32  A    between atoms: O3'_72  and  P_86
REMARK   33  A    between atoms: C2'_73  and  O2'_74
REMARK   34  A    between atoms: C1'_75  and  N9_76
REMARK   35  A    between atoms: C6_80  and  N6_81
REMARK   36  A    between atoms: P_86  and  OP1_87
REMARK   37  A    between atoms: P_86  and  O5'_89
REMARK   38  A    between atoms: O5'_89  and  C5'_90
REMARK   39  A    between atoms: C5'_90  and  C4'_91
REMARK   40  A    between atoms: C3'_93  and  O3'_94
REMARK   41  A    between atoms: O3'_94  and  P_106
REMARK   42  A    between atoms: C2'_95  and  O2'_96
REMARK   43  A    between atoms: C1'_97  and  N1_98
REMARK   44  A    between atoms: P_106  and  OP2_108
REMARK   45  A    between atoms: P_106  and  O5'_109
REMARK   46  A    between atoms: O5'_109  and  C5'_110
REMARK   47  A    between atoms: C5'_110  and  C4'_111
REMARK   48  A    between atoms: C3'_113  and  O3'_114
REMARK   49  A    between atoms: O3'_114  and  P_128
REMARK   50  A    between atoms: C2'_115  and  O2'_116
REMARK   51  A    between atoms: C1'_117  and  N9_118
REMARK   52  A    between atoms: P_128  and  OP2_130
REMARK   53  A    between atoms: P_128  and  O5'_131
REMARK   54  A    between atoms: O5'_131  and  C5'_132
REMARK   55  A    between atoms: C5'_132  and  C4'_133
REMARK   56  A    between atoms: C3'_135  and  O3'_136
REMARK   57  A    between atoms: O3'_136  and  P_148
REMARK   58  A    between atoms: C2'_137  and  O2'_138
REMARK   59  A    between atoms: C1'_139  and  N1_140
REMARK   60  A    between atoms: P_148  and  OP2_150
REMARK   61  A    between atoms: P_148  and  O5'_151
REMARK   62  A    between atoms: O5'_151  and  C5'_152
REMARK   63  A    between atoms: C5'_152  and  C4'_153
REMARK   64  A    between atoms: C3'_155  and  O3'_156
REMARK   65  A    between atoms: O3'_156  and  P_168
REMARK   66  A    between atoms: C2'_157  and  O2'_158
REMARK   67  A    between atoms: C1'_159  and  N1_160
REMARK   68  A    between atoms: P_168  and  OP2_170
REMARK   69  A    between atoms: P_168  and  O5'_171
REMARK   70  A    between atoms: O5'_171  and  C5'_172
REMARK   71  A    between atoms: C5'_172  and  C4'_173
REMARK   72  A    between atoms: C3'_175  and  O3'_176
REMARK   73  A    between atoms: O3'_176  and  P_190
REMARK   74  A    between atoms: C2'_177  and  O2'_178
REMARK   75  A    between atoms: C1'_179  and  N9_180
REMARK   76  A    between atoms: C6_184  and  N6_185
REMARK   77  A    between atoms: P_190  and  OP1_191
REMARK   78  A    between atoms: P_190  and  O5'_193
REMARK   79  A    between atoms: O5'_193  and  C5'_194
REMARK   80  A    between atoms: C5'_194  and  C4'_195
REMARK   81  A    between atoms: C3'_197  and  O3'_198
REMARK   82  A    between atoms: O3'_198  and  P_210
REMARK   83  A    between atoms: C2'_199  and  O2'_200
REMARK   84  A    between atoms: C1'_201  and  N1_202
REMARK   85  A    between atoms: P_210  and  OP2_212
REMARK   86  A    between atoms: P_210  and  O5'_213
REMARK   87  A    between atoms: O5'_213  and  C5'_214
REMARK   88  A    between atoms: C5'_214  and  C4'_215
REMARK   89  A    between atoms: C3'_217  and  O3'_218
REMARK   90  A    between atoms: O3'_218  and  P_230
REMARK   91  A    between atoms: C2'_219  and  O2'_220
REMARK   92  A    between atoms: C1'_221  and  N1_222
REMARK   93  A    between atoms: P_230  and  OP2_232
REMARK   94  A    between atoms: P_230  and  O5'_233
REMARK   95  A    between atoms: O5'_233  and  C5'_234
REMARK   96  A    between atoms: C5'_234  and  C4'_235
REMARK   97  A    between atoms: C3'_237  and  O3'_238
REMARK   98  A    between atoms: O3'_238  and  P_250
REMARK   99  A    between atoms: C2'_239  and  O2'_240
REMARK  100  A    between atoms: C1'_241  and  N1_242
REMARK  101  A    between atoms: P_250  and  OP1_251
REMARK  102  A    between atoms: P_250  and  O5'_253
REMARK  103  A    between atoms: O5'_253  and  C5'_254
REMARK  104  A    between atoms: C5'_254  and  C4'_255
REMARK  105  A    between atoms: C3'_257  and  O3'_258
REMARK  106  A    between atoms: O3'_258  and  P_270
REMARK  107  A    between atoms: C2'_259  and  O2'_260
REMARK  108  A    between atoms: C1'_261  and  N1_262
REMARK  109  A    between atoms: P_270  and  OP1_271
REMARK  110  A    between atoms: P_270  and  O5'_273
REMARK  111  A    between atoms: O5'_273  and  C5'_274
REMARK  112  A    between atoms: C5'_274  and  C4'_275
REMARK  113  A    between atoms: C3'_277  and  O3'_278
REMARK  114  A    between atoms: O3'_278  and  P_292
REMARK  115  A    between atoms: C2'_279  and  O2'_280
REMARK  116  A    between atoms: C1'_281  and  N9_282
REMARK  117  A    between atoms: C6_286  and  N6_287
REMARK  118  A    between atoms: P_292  and  OP1_293
REMARK  119  A    between atoms: P_292  and  O5'_295
REMARK  120  A    between atoms: O5'_295  and  C5'_296
REMARK  121  A    between atoms: C5'_296  and  C4'_297
REMARK  122  A    between atoms: C3'_299  and  O3'_300
REMARK  123  A    between atoms: O3'_300  and  P_312
REMARK  124  A    between atoms: C2'_301  and  O2'_302
REMARK  125  A    between atoms: C1'_303  and  N1_304
REMARK  126  A    between atoms: P_312  and  OP1_313
REMARK  127  A    between atoms: P_312  and  O5'_315
REMARK  128  A    between atoms: O5'_315  and  C5'_316
REMARK  129  A    between atoms: C5'_316  and  C4'_317
REMARK  130  A    between atoms: C3'_319  and  O3'_320
REMARK  131  A    between atoms: O3'_320  and  P_332
REMARK  132  A    between atoms: C2'_321  and  O2'_322
REMARK  133  A    between atoms: C1'_323  and  N1_324
REMARK  134  A    between atoms: P_332  and  OP2_334
REMARK  135  A    between atoms: P_332  and  O5'_335
REMARK  136  A    between atoms: O5'_335  and  C5'_336
REMARK  137  A    between atoms: C5'_336  and  C4'_337
REMARK  138  A    between atoms: C3'_339  and  O3'_340
REMARK  139  A    between atoms: O3'_340  and  P_352
REMARK  140  A    between atoms: C2'_341  and  O2'_342
REMARK  141  A    between atoms: C1'_343  and  N1_344
REMARK  142  A    between atoms: P_352  and  OP2_354
REMARK  143  A    between atoms: P_352  and  O5'_355
REMARK  144  A    between atoms: O5'_355  and  C5'_356
REMARK  145  A    between atoms: C5'_356  and  C4'_357
REMARK  146  A    between atoms: C3'_359  and  O3'_360
REMARK  147  A    between atoms: O3'_360  and  P_375
REMARK  148  A    between atoms: C2'_361  and  O2'_362
REMARK  149  A    between atoms: C1'_363  and  N9_364
REMARK  150  A    between atoms: P_375  and  OP1_376
REMARK  151  A    between atoms: P_375  and  O5'_378
REMARK  152  A    between atoms: O5'_378  and  C5'_379
REMARK  153  A    between atoms: C5'_379  and  C4'_380
REMARK  154  A    between atoms: C3'_382  and  O3'_383
REMARK  155  A    between atoms: O3'_383  and  P_397
REMARK  156  A    between atoms: C2'_384  and  O2'_385
REMARK  157  A    between atoms: C1'_386  and  N9_387
REMARK  158  A    between atoms: C6_391  and  N6_392
REMARK  159  A    between atoms: P_397  and  OP1_398
REMARK  160  A    between atoms: P_397  and  O5'_400
REMARK  161  A    between atoms: O5'_400  and  C5'_401
REMARK  162  A    between atoms: C5'_401  and  C4'_402
REMARK  163  A    between atoms: C3'_404  and  O3'_405
REMARK  164  A    between atoms: O3'_405  and  P_419
REMARK  165  A    between atoms: C2'_406  and  O2'_407
REMARK  166  A    between atoms: C1'_408  and  N9_409
REMARK  167  A    between atoms: C6_413  and  N6_414
REMARK  168  A    between atoms: P_419  and  OP2_421
REMARK  169  A    between atoms: P_419  and  O5'_422
REMARK  170  A    between atoms: O5'_422  and  C5'_423
REMARK  171  A    between atoms: C5'_423  and  C4'_424
REMARK  172  A    between atoms: C3'_426  and  O3'_427
REMARK  173  A    between atoms: O3'_427  and  P_441
REMARK  174  A    between atoms: C2'_428  and  O2'_429
REMARK  175  A    between atoms: C1'_430  and  N9_431
REMARK  176  A    between atoms: P_441  and  OP2_443
REMARK  177  A    between atoms: P_441  and  O5'_444
REMARK  178  A    between atoms: O5'_444  and  C5'_445
REMARK  179  A    between atoms: C5'_445  and  C4'_446
REMARK  180  A    between atoms: C3'_448  and  O3'_449
REMARK  181  A    between atoms: O3'_449  and  P_461
REMARK  182  A    between atoms: C2'_450  and  O2'_451
REMARK  183  A    between atoms: C1'_452  and  N1_453
REMARK  184  A    between atoms: P_461  and  OP2_463
REMARK  185  A    between atoms: P_461  and  O5'_464
REMARK  186  A    between atoms: O5'_464  and  C5'_465
REMARK  187  A    between atoms: C5'_465  and  C4'_466
REMARK  188  A    between atoms: C3'_468  and  O3'_469
REMARK  189  A    between atoms: O3'_469  and  P_481
REMARK  190  A    between atoms: C2'_470  and  O2'_471
REMARK  191  A    between atoms: C1'_472  and  N1_473
REMARK  192  A    between atoms: P_481  and  OP2_483
REMARK  193  A    between atoms: P_481  and  O5'_484
REMARK  194  A    between atoms: O5'_484  and  C5'_485
REMARK  195  A    between atoms: C5'_485  and  C4'_486
REMARK  196  A    between atoms: C3'_488  and  O3'_489
REMARK  197  A    between atoms: O3'_489  and  P_501
REMARK  198  A    between atoms: C2'_490  and  O2'_491
REMARK  199  A    between atoms: C1'_492  and  N1_493
REMARK  200  A    between atoms: P_501  and  OP2_503
REMARK  201  A    between atoms: P_501  and  O5'_504
REMARK  202  A    between atoms: O5'_504  and  C5'_505
REMARK  203  A    between atoms: C5'_505  and  C4'_506
REMARK  204  A    between atoms: C3'_508  and  O3'_509
REMARK  205  A    between atoms: O3'_509  and  P_521
REMARK  206  A    between atoms: C2'_510  and  O2'_511
REMARK  207  A    between atoms: C1'_512  and  N1_513
REMARK  208  A    between atoms: P_521  and  OP2_523
REMARK  209  A    between atoms: P_521  and  O5'_524
REMARK  210  A    between atoms: O5'_524  and  C5'_525
REMARK  211  A    between atoms: C5'_525  and  C4'_526
REMARK  212  A    between atoms: C3'_528  and  O3'_529
REMARK  213  A    between atoms: O3'_529  and  P_541
REMARK  214  A    between atoms: C2'_530  and  O2'_531
REMARK  215  A    between atoms: C1'_532  and  N1_533
REMARK  216  A    between atoms: P_541  and  OP1_542
REMARK  217  A    between atoms: P_541  and  O5'_544
REMARK  218  A    between atoms: O5'_544  and  C5'_545
REMARK  219  A    between atoms: C5'_545  and  C4'_546
REMARK  220  A    between atoms: C3'_548  and  O3'_549
REMARK  221  A    between atoms: O3'_549  and  P_561
REMARK  222  A    between atoms: C2'_550  and  O2'_551
REMARK  223  A    between atoms: C1'_552  and  N1_553
REMARK  224  A    between atoms: P_561  and  OP1_562
REMARK  225  A    between atoms: P_561  and  O5'_564
REMARK  226  A    between atoms: O5'_564  and  C5'_565
REMARK  227  A    between atoms: C5'_565  and  C4'_566
REMARK  228  A    between atoms: C3'_568  and  O3'_569
REMARK  229  A    between atoms: O3'_569  and  P_581
REMARK  230  A    between atoms: C2'_570  and  O2'_571
REMARK  231  A    between atoms: C1'_572  and  N1_573
REMARK  232  A    between atoms: P_581  and  OP1_582
REMARK  233  A    between atoms: P_581  and  O5'_584
REMARK  234  A    between atoms: O5'_584  and  C5'_585
REMARK  235  A    between atoms: C5'_585  and  C4'_586
REMARK  236  A    between atoms: C3'_588  and  O3'_589
REMARK  237  A    between atoms: O3'_589  and  P_603
REMARK  238  A    between atoms: C2'_590  and  O2'_591
REMARK  239  A    between atoms: C1'_592  and  N9_593
REMARK  240  A    between atoms: C6_597  and  N6_598
REMARK  241  A    between atoms: P_603  and  OP1_604
REMARK  242  A    between atoms: P_603  and  O5'_606
REMARK  243  A    between atoms: O5'_606  and  C5'_607
REMARK  244  A    between atoms: C5'_607  and  C4'_608
REMARK  245  A    between atoms: C3'_610  and  O3'_611
REMARK  246  A    between atoms: O3'_611  and  P_625
REMARK  247  A    between atoms: C2'_612  and  O2'_613
REMARK  248  A    between atoms: C1'_614  and  N9_615
REMARK  249  A    between atoms: C6_619  and  N6_620
REMARK  250  A    between atoms: P_625  and  OP1_626
REMARK  251  A    between atoms: P_625  and  O5'_628
REMARK  252  A    between atoms: O5'_628  and  C5'_629
REMARK  253  A    between atoms: C5'_629  and  C4'_630
REMARK  254  A    between atoms: C3'_632  and  O3'_633
REMARK  255  A    between atoms: O3'_633  and  P_647
REMARK  256  A    between atoms: C2'_634  and  O2'_635
REMARK  257  A    between atoms: C1'_636  and  N9_637
REMARK  258  A    between atoms: C6_641  and  N6_642
REMARK  259  A    between atoms: P_647  and  OP2_649
REMARK  260  A    between atoms: P_647  and  O5'_650
REMARK  261  A    between atoms: O5'_650  and  C5'_651
REMARK  262  A    between atoms: C5'_651  and  C4'_652
REMARK  263  A    between atoms: C3'_654  and  O3'_655
REMARK  264  A    between atoms: O3'_655  and  P_669
REMARK  265  A    between atoms: C2'_656  and  O2'_657
REMARK  266  A    between atoms: C1'_658  and  N9_659
REMARK  267  A    between atoms: P_669  and  OP2_671
REMARK  268  A    between atoms: P_669  and  O5'_672
REMARK  269  A    between atoms: O5'_672  and  C5'_673
REMARK  270  A    between atoms: C5'_673  and  C4'_674
REMARK  271  A    between atoms: C3'_676  and  O3'_677
REMARK  272  A    between atoms: O3'_677  and  P_689
REMARK  273  A    between atoms: C2'_678  and  O2'_679
REMARK  274  A    between atoms: C1'_680  and  N1_681
REMARK  275  A    between atoms: P_689  and  OP2_691
REMARK  276  A    between atoms: P_689  and  O5'_692
REMARK  277  A    between atoms: O5'_692  and  C5'_693
REMARK  278  A    between atoms: C5'_693  and  C4'_694
REMARK  279  A    between atoms: C3'_696  and  O3'_697
REMARK  280  A    between atoms: O3'_697  and  P_711
REMARK  281  A    between atoms: C2'_698  and  O2'_699
REMARK  282  A    between atoms: C1'_700  and  N9_701
REMARK  283  A    between atoms: P_711  and  OP2_713
REMARK  284  A    between atoms: P_711  and  O5'_714
REMARK  285  A    between atoms: O5'_714  and  C5'_715
REMARK  286  A    between atoms: C5'_715  and  C4'_716
REMARK  287  A    between atoms: C3'_718  and  O3'_719
REMARK  288  A    between atoms: O3'_719  and  P_733
REMARK  289  A    between atoms: C2'_720  and  O2'_721
REMARK  290  A    between atoms: C1'_722  and  N9_723
REMARK  291  A    between atoms: P_733  and  OP2_735
REMARK  292  A    between atoms: P_733  and  O5'_736
REMARK  293  A    between atoms: O5'_736  and  C5'_737
REMARK  294  A    between atoms: C5'_737  and  C4'_738
REMARK  295  A    between atoms: C3'_740  and  O3'_741
REMARK  296  A    between atoms: O3'_741  and  P_753
REMARK  297  A    between atoms: C2'_742  and  O2'_743
REMARK  298  A    between atoms: C1'_744  and  N1_745
REMARK  299  A    between atoms: P_753  and  OP2_755
REMARK  300  A    between atoms: P_753  and  O5'_756
REMARK  301  A    between atoms: O5'_756  and  C5'_757
REMARK  302  A    between atoms: C5'_757  and  C4'_758
REMARK  303  A    between atoms: C3'_760  and  O3'_761
REMARK  304  A    between atoms: O3'_761  and  P_775
REMARK  305  A    between atoms: C2'_762  and  O2'_763
REMARK  306  A    between atoms: C1'_764  and  N9_765
REMARK  307  A    between atoms: P_775  and  OP1_776
REMARK  308  A    between atoms: P_775  and  O5'_778
REMARK  309  A    between atoms: O5'_778  and  C5'_779
REMARK  310  A    between atoms: C5'_779  and  C4'_780
REMARK  311  A    between atoms: C3'_782  and  O3'_783
REMARK  312  A    between atoms: O3'_783  and  P_795
REMARK  313  A    between atoms: C2'_784  and  O2'_785
REMARK  314  A    between atoms: C1'_786  and  N1_787
REMARK  315  A    between atoms: P_795  and  OP1_796
REMARK  316  A    between atoms: P_795  and  O5'_798
REMARK  317  A    between atoms: O5'_798  and  C5'_799
REMARK  318  A    between atoms: C5'_799  and  C4'_800
REMARK  319  A    between atoms: C3'_802  and  O3'_803
REMARK  320  A    between atoms: O3'_803  and  P_815
REMARK  321  A    between atoms: C2'_804  and  O2'_805
REMARK  322  A    between atoms: C1'_806  and  N1_807
REMARK  323  A    between atoms: P_815  and  OP2_817
REMARK  324  A    between atoms: P_815  and  O5'_818
REMARK  325  A    between atoms: O5'_818  and  C5'_819
REMARK  326  A    between atoms: C5'_819  and  C4'_820
REMARK  327  A    between atoms: C3'_822  and  O3'_823
REMARK  328  A    between atoms: O3'_823  and  P_835
REMARK  329  A    between atoms: C2'_824  and  O2'_825
REMARK  330  A    between atoms: C1'_826  and  N1_827
REMARK  331  A    between atoms: P_835  and  OP2_837
REMARK  332  A    between atoms: P_835  and  O5'_838
REMARK  333  A    between atoms: O5'_838  and  C5'_839
REMARK  334  A    between atoms: C5'_839  and  C4'_840
REMARK  335  A    between atoms: C3'_842  and  O3'_843
REMARK  336  A    between atoms: O3'_843  and  P_855
REMARK  337  A    between atoms: C2'_844  and  O2'_845
REMARK  338  A    between atoms: C1'_846  and  N1_847
REMARK  339  A    between atoms: P_855  and  OP1_856
REMARK  340  A    between atoms: P_855  and  O5'_858
REMARK  341  A    between atoms: O5'_858  and  C5'_859
REMARK  342  A    between atoms: C5'_859  and  C4'_860
REMARK  343  A    between atoms: C3'_862  and  O3'_863
REMARK  344  A    between atoms: O3'_863  and  P_875
REMARK  345  A    between atoms: C2'_864  and  O2'_865
REMARK  346  A    between atoms: C1'_866  and  N1_867
REMARK  347  A    between atoms: P_875  and  OP1_876
REMARK  348  A    between atoms: P_875  and  O5'_878
REMARK  349  A    between atoms: O5'_878  and  C5'_879
REMARK  350  A    between atoms: C5'_879  and  C4'_880
REMARK  351  A    between atoms: C3'_882  and  O3'_883
REMARK  352  A    between atoms: O3'_883  and  P_897
REMARK  353  A    between atoms: C2'_884  and  O2'_885
REMARK  354  A    between atoms: C1'_886  and  N9_887
REMARK  355  A    between atoms: C6_891  and  N6_892
REMARK  356  A    between atoms: P_897  and  OP1_898
REMARK  357  A    between atoms: P_897  and  O5'_900
REMARK  358  A    between atoms: O5'_900  and  C5'_901
REMARK  359  A    between atoms: C5'_901  and  C4'_902
REMARK  360  A    between atoms: C3'_904  and  O3'_905
REMARK  361  A    between atoms: O3'_905  and  P_917
REMARK  362  A    between atoms: C2'_906  and  O2'_907
REMARK  363  A    between atoms: C1'_908  and  N1_909
REMARK  364  A    between atoms: P_917  and  OP1_918
REMARK  365  A    between atoms: P_917  and  O5'_920
REMARK  366  A    between atoms: O5'_920  and  C5'_921
REMARK  367  A    between atoms: C5'_921  and  C4'_922
REMARK  368  A    between atoms: C3'_924  and  O3'_925
REMARK  369  A    between atoms: O3'_925  and  P_937
REMARK  370  A    between atoms: C2'_926  and  O2'_927
REMARK  371  A    between atoms: C1'_928  and  N1_929
REMARK  372  A    between atoms: P_937  and  OP1_938
REMARK  373  A    between atoms: P_937  and  O5'_940
REMARK  374  A    between atoms: O5'_940  and  C5'_941
REMARK  375  A    between atoms: C5'_941  and  C4'_942
REMARK  376  A    between atoms: C3'_944  and  O3'_945
REMARK  377  A    between atoms: O3'_945  and  P_957
REMARK  378  A    between atoms: C2'_946  and  O2'_947
REMARK  379  A    between atoms: C1'_948  and  N1_949
REMARK  380  A    between atoms: P_957  and  OP2_959
REMARK  381  A    between atoms: P_957  and  O5'_960
REMARK  382  A    between atoms: O5'_960  and  C5'_961
REMARK  383  A    between atoms: C5'_961  and  C4'_962
REMARK  384  A    between atoms: C3'_964  and  O3'_965
REMARK  385  A    between atoms: O3'_965  and  P_977
REMARK  386  A    between atoms: C2'_966  and  O2'_967
REMARK  387  A    between atoms: C1'_968  and  N1_969
REMARK  388  A    between atoms: P_977  and  OP2_979
REMARK  389  A    between atoms: P_977  and  O5'_980
REMARK  390  A    between atoms: O5'_980  and  C5'_981
REMARK  391  A    between atoms: C5'_981  and  C4'_982
REMARK  392  A    between atoms: C3'_984  and  O3'_985
REMARK  393  A    between atoms: O3'_985  and  P_999
REMARK  394  A    between atoms: C2'_986  and  O2'_987
REMARK  395  A    between atoms: C1'_988  and  N9_989
REMARK  396  A    between atoms: P_999  and  OP2_1001
REMARK  397  A    between atoms: P_999  and  O5'_1002
REMARK  398  A    between atoms: O5'_1002  and  C5'_1003
REMARK  399  A    between atoms: C5'_1003  and  C4'_1004
REMARK  400  A    between atoms: C3'_1006  and  O3'_1007
REMARK  401  A    between atoms: O3'_1007  and  P_1019
REMARK  402  A    between atoms: C2'_1008  and  O2'_1009
REMARK  403  A    between atoms: C1'_1010  and  N1_1011
REMARK  404  A    between atoms: P_1019  and  OP2_1021
REMARK  405  A    between atoms: P_1019  and  O5'_1022
REMARK  406  A    between atoms: O5'_1022  and  C5'_1023
REMARK  407  A    between atoms: C5'_1023  and  C4'_1024
REMARK  408  A    between atoms: C3'_1026  and  O3'_1027
REMARK  409  A    between atoms: O3'_1027  and  P_1039
REMARK  410  A    between atoms: C2'_1028  and  O2'_1029
REMARK  411  A    between atoms: C1'_1030  and  N1_1031
REMARK  412  A    between atoms: P_1039  and  OP2_1041
REMARK  413  A    between atoms: P_1039  and  O5'_1042
REMARK  414  A    between atoms: O5'_1042  and  C5'_1043
REMARK  415  A    between atoms: C5'_1043  and  C4'_1044
REMARK  416  A    between atoms: C3'_1046  and  O3'_1047
REMARK  417  A    between atoms: O3'_1047  and  P_1059
REMARK  418  A    between atoms: C2'_1048  and  O2'_1049
REMARK  419  A    between atoms: C1'_1050  and  N1_1051
REMARK  420  A    between atoms: P_1059  and  OP1_1060
REMARK  421  A    between atoms: P_1059  and  O5'_1062
REMARK  422  A    between atoms: O5'_1062  and  C5'_1063
REMARK  423  A    between atoms: C5'_1063  and  C4'_1064
REMARK  424  A    between atoms: C3'_1066  and  O3'_1067
REMARK  425  A    between atoms: O3'_1067  and  P_1079
REMARK  426  A    between atoms: C2'_1068  and  O2'_1069
REMARK  427  A    between atoms: C1'_1070  and  N1_1071
REMARK  428  A    between atoms: P_1079  and  OP1_1080
REMARK  429  A    between atoms: P_1079  and  O5'_1082
REMARK  430  A    between atoms: O5'_1082  and  C5'_1083
REMARK  431  A    between atoms: C5'_1083  and  C4'_1084
REMARK  432  A    between atoms: C3'_1086  and  O3'_1087
REMARK  433  A    between atoms: O3'_1087  and  P_1101
REMARK  434  A    between atoms: C2'_1088  and  O2'_1089
REMARK  435  A    between atoms: C1'_1090  and  N9_1091
REMARK  436  A    between atoms: C6_1095  and  N6_1096
REMARK  437  A    between atoms: P_1101  and  OP1_1102
REMARK  438  A    between atoms: P_1101  and  O5'_1104
REMARK  439  A    between atoms: O5'_1104  and  C5'_1105
REMARK  440  A    between atoms: C5'_1105  and  C4'_1106
REMARK  441  A    between atoms: C3'_1108  and  O3'_1109
REMARK  442  A    between atoms: O3'_1109  and  P_1123
REMARK  443  A    between atoms: C2'_1110  and  O2'_1111
REMARK  444  A    between atoms: C1'_1112  and  N9_1113
REMARK  445  A    between atoms: C6_1117  and  N6_1118
REMARK  446  A    between atoms: P_1123  and  OP1_1124
REMARK  447  A    between atoms: P_1123  and  O5'_1126
REMARK  448  A    between atoms: O5'_1126  and  C5'_1127
REMARK  449  A    between atoms: C5'_1127  and  C4'_1128
REMARK  450  A    between atoms: C3'_1130  and  O3'_1131
REMARK  451  A    between atoms: O3'_1131  and  P_1145
REMARK  452  A    between atoms: C2'_1132  and  O2'_1133
REMARK  453  A    between atoms: C1'_1134  and  N9_1135
REMARK  454  A    between atoms: C6_1139  and  N6_1140
REMARK  455  A    between atoms: P_1145  and  OP1_1146
REMARK  456  A    between atoms: P_1145  and  O5'_1148
REMARK  457  A    between atoms: O5'_1148  and  C5'_1149
REMARK  458  A    between atoms: C5'_1149  and  C4'_1150
REMARK  459  A    between atoms: C3'_1152  and  O3'_1153
REMARK  460  A    between atoms: O3'_1153  and  P_1167
REMARK  461  A    between atoms: C2'_1154  and  O2'_1155
REMARK  462  A    between atoms: C1'_1156  and  N9_1157
REMARK  463  A    between atoms: C6_1161  and  N6_1162
REMARK  464  A    between atoms: P_1167  and  OP1_1168
REMARK  465  A    between atoms: P_1167  and  O5'_1170
REMARK  466  A    between atoms: O5'_1170  and  C5'_1171
REMARK  467  A    between atoms: C5'_1171  and  C4'_1172
REMARK  468  A    between atoms: C3'_1174  and  O3'_1175
REMARK  469  A    between atoms: O3'_1175  and  P_1189
REMARK  470  A    between atoms: C2'_1176  and  O2'_1177
REMARK  471  A    between atoms: C1'_1178  and  N9_1179
REMARK  472  A    between atoms: C6_1183  and  N6_1184
REMARK  473  A    between atoms: P_1189  and  OP1_1190
REMARK  474  A    between atoms: P_1189  and  O5'_1192
REMARK  475  A    between atoms: O5'_1192  and  C5'_1193
REMARK  476  A    between atoms: C5'_1193  and  C4'_1194
REMARK  477  A    between atoms: C3'_1196  and  O3'_1197
REMARK  478  A    between atoms: O3'_1197  and  P_1209
REMARK  479  A    between atoms: C2'_1198  and  O2'_1199
REMARK  480  A    between atoms: C1'_1200  and  N1_1201
REMARK  481  A    between atoms: P_1209  and  OP1_1210
REMARK  482  A    between atoms: P_1209  and  O5'_1212
REMARK  483  A    between atoms: O5'_1212  and  C5'_1213
REMARK  484  A    between atoms: C5'_1213  and  C4'_1214
REMARK  485  A    between atoms: C3'_1216  and  O3'_1217
REMARK  486  A    between atoms: O3'_1217  and  P_1231
REMARK  487  A    between atoms: C2'_1218  and  O2'_1219
REMARK  488  A    between atoms: C1'_1220  and  N9_1221
REMARK  489  A    between atoms: P_1231  and  OP2_1233
REMARK  490  A    between atoms: P_1231  and  O5'_1234
REMARK  491  A    between atoms: O5'_1234  and  C5'_1235
REMARK  492  A    between atoms: C5'_1235  and  C4'_1236
REMARK  493  A    between atoms: C3'_1238  and  O3'_1239
REMARK  494  A    between atoms: O3'_1239  and  P_1254
REMARK  495  A    between atoms: C2'_1240  and  O2'_1241
REMARK  496  A    between atoms: C1'_1242  and  N9_1243
REMARK  497  A    between atoms: P_1254  and  OP1_1255
REMARK  498  A    between atoms: P_1254  and  O5'_1257
REMARK  499  A    between atoms: O5'_1257  and  C5'_1258
REMARK  500  A    between atoms: C5'_1258  and  C4'_1259
REMARK  501  A    between atoms: C3'_1261  and  O3'_1262
REMARK  502  A    between atoms: O3'_1262  and  P_1276
REMARK  503  A    between atoms: C2'_1263  and  O2'_1264
REMARK  504  A    between atoms: C1'_1265  and  N9_1266
REMARK  505  A    between atoms: C6_1270  and  N6_1271
REMARK  506  A    between atoms: P_1276  and  OP2_1278
REMARK  507  A    between atoms: P_1276  and  O5'_1279
REMARK  508  A    between atoms: O5'_1279  and  C5'_1280
REMARK  509  A    between atoms: C5'_1280  and  C4'_1281
REMARK  510  A    between atoms: C3'_1283  and  O3'_1284
REMARK  511  A    between atoms: O3'_1284  and  P_1296
REMARK  512  A    between atoms: C2'_1285  and  O2'_1286
REMARK  513  A    between atoms: C1'_1287  and  N1_1288
REMARK  514  A    between atoms: P_1296  and  OP2_1298
REMARK  515  A    between atoms: P_1296  and  O5'_1299
REMARK  516  A    between atoms: O5'_1299  and  C5'_1300
REMARK  517  A    between atoms: C5'_1300  and  C4'_1301
REMARK  518  A    between atoms: C3'_1303  and  O3'_1304
REMARK  519  A    between atoms: O3'_1304  and  P_1316
REMARK  520  A    between atoms: C2'_1305  and  O2'_1306
REMARK  521  A    between atoms: C1'_1307  and  N1_1308
REMARK  522  A    between atoms: P_1316  and  OP2_1318
REMARK  523  A    between atoms: P_1316  and  O5'_1319
REMARK  524  A    between atoms: O5'_1319  and  C5'_1320
REMARK  525  A    between atoms: C5'_1320  and  C4'_1321
REMARK  526  A    between atoms: C3'_1323  and  O3'_1324
REMARK  527  A    between atoms: O3'_1324  and  P_1338
REMARK  528  A    between atoms: C2'_1325  and  O2'_1326
REMARK  529  A    between atoms: C1'_1327  and  N9_1328
REMARK  530  A    between atoms: P_1338  and  OP2_1340
REMARK  531  A    between atoms: P_1338  and  O5'_1341
REMARK  532  A    between atoms: O5'_1341  and  C5'_1342
REMARK  533  A    between atoms: C5'_1342  and  C4'_1343
REMARK  534  A    between atoms: C3'_1345  and  O3'_1346
REMARK  535  A    between atoms: O3'_1346  and  P_1358
REMARK  536  A    between atoms: C2'_1347  and  O2'_1348
REMARK  537  A    between atoms: C1'_1349  and  N1_1350
REMARK  538  A    between atoms: P_1358  and  OP2_1360
REMARK  539  A    between atoms: P_1358  and  O5'_1361
REMARK  540  A    between atoms: O5'_1361  and  C5'_1362
REMARK  541  A    between atoms: C5'_1362  and  C4'_1363
REMARK  542  A    between atoms: C3'_1365  and  O3'_1366
REMARK  543  A    between atoms: O3'_1366  and  P_1380
REMARK  544  A    between atoms: C2'_1367  and  O2'_1368
REMARK  545  A    between atoms: C1'_1369  and  N9_1370
REMARK  546  A    between atoms: P_1380  and  OP1_1381
REMARK  547  A    between atoms: P_1380  and  O5'_1383
REMARK  548  A    between atoms: O5'_1383  and  C5'_1384
REMARK  549  A    between atoms: C5'_1384  and  C4'_1385
REMARK  550  A    between atoms: C3'_1387  and  O3'_1388
REMARK  551  A    between atoms: O3'_1388  and  P_1402
REMARK  552  A    between atoms: C2'_1389  and  O2'_1390
REMARK  553  A    between atoms: C1'_1391  and  N9_1392
REMARK  554  A    between atoms: C6_1396  and  N6_1397
REMARK  555  A    between atoms: P_1402  and  OP1_1403
REMARK  556  A    between atoms: P_1402  and  O5'_1405
REMARK  557  A    between atoms: O5'_1405  and  C5'_1406
REMARK  558  A    between atoms: C5'_1406  and  C4'_1407
REMARK  559  A    between atoms: C3'_1409  and  O3'_1410
REMARK  560  A    between atoms: O3'_1410  and  P_1424
REMARK  561  A    between atoms: C2'_1411  and  O2'_1412
REMARK  562  A    between atoms: C1'_1413  and  N9_1414
REMARK  563  A    between atoms: C6_1418  and  N6_1419
REMARK  564  A    between atoms: P_1424  and  OP1_1425
REMARK  565  A    between atoms: P_1424  and  O5'_1427
REMARK  566  A    between atoms: O5'_1427  and  C5'_1428
REMARK  567  A    between atoms: C5'_1428  and  C4'_1429
REMARK  568  A    between atoms: C3'_1431  and  O3'_1432
REMARK  569  A    between atoms: O3'_1432  and  P_1446
REMARK  570  A    between atoms: C2'_1433  and  O2'_1434
REMARK  571  A    between atoms: C1'_1435  and  N9_1436
REMARK  572  A    between atoms: C6_1440  and  N6_1441
REMARK  573  A    between atoms: P_1446  and  OP1_1447
REMARK  574  A    between atoms: P_1446  and  O5'_1449
REMARK  575  A    between atoms: O5'_1449  and  C5'_1450
REMARK  576  A    between atoms: C5'_1450  and  C4'_1451
REMARK  577  A    between atoms: C3'_1453  and  O3'_1454
REMARK  578  A    between atoms: O3'_1454  and  P_1468
REMARK  579  A    between atoms: C2'_1455  and  O2'_1456
REMARK  580  A    between atoms: C1'_1457  and  N9_1458
REMARK  581  A    between atoms: C6_1462  and  N6_1463
REMARK  582  A    between atoms: P_1468  and  OP1_1469
REMARK  583  A    between atoms: P_1468  and  O5'_1471
REMARK  584  A    between atoms: O5'_1471  and  C5'_1472
REMARK  585  A    between atoms: C5'_1472  and  C4'_1473
REMARK  586  A    between atoms: C3'_1475  and  O3'_1476
REMARK  587  A    between atoms: O3'_1476  and  P_1488
REMARK  588  A    between atoms: C2'_1477  and  O2'_1478
REMARK  589  A    between atoms: C1'_1479  and  N1_1480
REMARK  590  A    between atoms: P_1488  and  OP1_1489
REMARK  591  A    between atoms: P_1488  and  O5'_1491
REMARK  592  A    between atoms: O5'_1491  and  C5'_1492
REMARK  593  A    between atoms: C5'_1492  and  C4'_1493
REMARK  594  A    between atoms: C3'_1495  and  O3'_1496
REMARK  595  A    between atoms: O3'_1496  and  P_1508
REMARK  596  A    between atoms: C2'_1497  and  O2'_1498
REMARK  597  A    between atoms: C1'_1499  and  N1_1500
REMARK  598  A    between atoms: P_1508  and  OP2_1510
REMARK  599  A    between atoms: P_1508  and  O5'_1511
REMARK  600  A    between atoms: O5'_1511  and  C5'_1512
REMARK  601  A    between atoms: C5'_1512  and  C4'_1513
REMARK  602  A    between atoms: C3'_1515  and  O3'_1516
REMARK  603  A    between atoms: O3'_1516  and  P_1528
REMARK  604  A    between atoms: C2'_1517  and  O2'_1518
REMARK  605  A    between atoms: C1'_1519  and  N1_1520
REMARK  606  A    between atoms: P_1528  and  OP2_1530
REMARK  607  A    between atoms: P_1528  and  O5'_1531
REMARK  608  A    between atoms: O5'_1531  and  C5'_1532
REMARK  609  A    between atoms: C5'_1532  and  C4'_1533
REMARK  610  A    between atoms: C3'_1535  and  O3'_1536
REMARK  611  A    between atoms: O3'_1536  and  P_1548
REMARK  612  A    between atoms: C2'_1537  and  O2'_1538
REMARK  613  A    between atoms: C1'_1539  and  N1_1540
REMARK  614  A    between atoms: P_1548  and  OP2_1550
REMARK  615  A    between atoms: P_1548  and  O5'_1551
REMARK  616  A    between atoms: O5'_1551  and  C5'_1552
REMARK  617  A    between atoms: C5'_1552  and  C4'_1553
REMARK  618  A    between atoms: C3'_1555  and  O3'_1556
REMARK  619  A    between atoms: O3'_1556  and  P_1568
REMARK  620  A    between atoms: C2'_1557  and  O2'_1558
REMARK  621  A    between atoms: C1'_1559  and  N1_1560
REMARK  622  A    between atoms: P_1568  and  OP2_1570
REMARK  623  A    between atoms: P_1568  and  O5'_1571
REMARK  624  A    between atoms: O5'_1571  and  C5'_1572
REMARK  625  A    between atoms: C5'_1572  and  C4'_1573
REMARK  626  A    between atoms: C3'_1575  and  O3'_1576
REMARK  627  A    between atoms: C2'_1577  and  O2'_1578
REMARK  628  A    between atoms: C1'_1579  and  N9_1580
REMARK                            x       y       z     vdW  Elec       q    Type
REMARK                         _______ _______ _______ _____ _____    ______ ____
ROOT
ATOM      1  P   U   B  39     -22.417  -3.916   3.706  0.00  0.00    +0.000 P 
ATOM      2  OP2 U   B  39     -21.298  -4.089   2.756  0.00  0.00    +0.000 OA
ENDROOT
BRANCH   1   3
ATOM      3  OP1 U   B  39     -23.654  -4.723   3.507  0.00  0.00    +0.000 OA
ATOM      4  H   U   B  39     -24.003  -4.565   2.616  0.00  0.00    +0.000 HD
ENDBRANCH   1   3
BRANCH   1   5
ATOM      5  O5' U   B  39     -22.839  -2.374   3.741  0.00  0.00    +0.000 OA
BRANCH   5   6
ATOM      6  C5' U   B  39     -22.807  -1.593   2.552  0.00  0.00    +0.000 C 
BRANCH   6   7
ATOM      7  C4' U   B  39     -22.526  -0.139   2.886  0.00  0.00    +0.000 C 
ATOM      8  O4' U   B  39     -23.769   0.567   3.155  0.00  0.00    +0.000 OA
ATOM      9  C3' U   B  39     -21.629   0.094   4.103  0.00  0.00    +0.000 C 
ATOM     10  C2' U   B  39     -22.635   0.437   5.194  0.00  0.00    +0.000 C 
ATOM     11  C1' U   B  39     -23.679   1.223   4.403  0.00  0.00    +0.000 C 
BRANCH  11  12
ATOM     12  N1  U   B  39     -25.008   1.273   5.045  0.00  0.00    +0.000 N 
ATOM     13  C2  U   B  39     -25.192   2.168   6.090  0.00  0.00    +0.000 A 
ATOM     14  O2  U   B  39     -24.312   2.906   6.503  0.00  0.00    +0.000 OA
ATOM     15  N3  U   B  39     -26.450   2.164   6.650  0.00  0.00    +0.000 N 
ATOM     16  C4  U   B  39     -27.517   1.381   6.270  0.00  0.00    +0.000 A 
ATOM     17  O4  U   B  39     -28.586   1.493   6.865  0.00  0.00    +0.000 OA
ATOM     18  C5  U   B  39     -27.250   0.487   5.182  0.00  0.00    +0.000 A 
ATOM     19  C6  U   B  39     -26.032   0.464   4.621  0.00  0.00    +0.000 A 
ATOM     20  H   U   B  39     -26.602   2.785   7.399  0.00  0.00    +0.000 HD
ENDBRANCH  11  12
BRANCH  10  21
ATOM     21  O2' U   B  39     -22.107   1.210   6.255  0.00  0.00    +0.000 OA
ATOM     22  H   U   B  39     -21.743   2.037   5.902  0.00  0.00    +0.000 HD
ENDBRANCH  10  21
BRANCH   9  23
ATOM     23  O3' U   B  39     -20.771   1.194   3.888  0.00  0.00    +0.000 OA
BRANCH  23  24
ATOM     24  P   C   B  40     -19.347   0.956   3.207  0.00  0.00    +0.000 P 
ATOM     25  OP1 C   B  40     -19.523   0.157   1.978  0.00  0.00    +0.000 OA
BRANCH  24  26
ATOM     26  OP2 C   B  40     -18.419   0.476   4.258  0.00  0.00    +0.000 OA
ATOM     27  H   C   B  40     -17.543   0.323   3.871  0.00  0.00    +0.000 HD
ENDBRANCH  24  26
BRANCH  24  28
ATOM     28  O5' C   B  40     -18.862   2.423   2.806  0.00  0.00    +0.000 OA
BRANCH  28  29
ATOM     29  C5' C   B  40     -18.323   2.705   1.531  0.00  0.00    +0.000 C 
BRANCH  29  30
ATOM     30  C4' C   B  40     -18.505   4.171   1.214  0.00  0.00    +0.000 C 
ATOM     31  O4' C   B  40     -19.918   4.435   0.983  0.00  0.00    +0.000 OA
ATOM     32  C3' C   B  40     -18.105   5.114   2.330  0.00  0.00    +0.000 C 
ATOM     33  C2' C   B  40     -19.005   6.319   2.087  0.00  0.00    +0.000 C 
ATOM     34  C1' C   B  40     -20.277   5.676   1.536  0.00  0.00    +0.000 C 
BRANCH  34  35
ATOM     35  N1  C   B  40     -21.322   5.424   2.564  0.00  0.00    +0.000 N 
ATOM     36  C2  C   B  40     -22.483   6.194   2.523  0.00  0.00    +0.000 A 
ATOM     37  O2  C   B  40     -22.608   7.057   1.651  0.00  0.00    +0.000 OA
ATOM     38  N3  C   B  40     -23.461   5.962   3.440  0.00  0.00    +0.000 NA
ATOM     39  C4  C   B  40     -23.302   5.020   4.369  0.00  0.00    +0.000 A 
ATOM     40  N4  C   B  40     -24.288   4.829   5.251  0.00  0.00    +0.000 N 
ATOM     41  C5  C   B  40     -22.124   4.235   4.433  0.00  0.00    +0.000 A 
ATOM     42  C6  C   B  40     -21.168   4.463   3.522  0.00  0.00    +0.000 A 
ATOM     43  H   C   B  40     -25.105   5.377   5.203  0.00  0.00    +0.000 HD
ATOM     44  H   C   B  40     -24.198   4.141   5.949  0.00  0.00    +0.000 HD
ENDBRANCH  34  35
BRANCH  33  45
ATOM     45  O2' C   B  40     -18.466   7.180   1.100  0.00  0.00    +0.000 OA
ATOM     46  H   C   B  40     -18.325   6.683   0.279  0.00  0.00    +0.000 HD
ENDBRANCH  33  45
BRANCH  32  47
ATOM     47  O3' C   B  40     -16.729   5.426   2.277  0.00  0.00    +0.000 OA
BRANCH  47  48
ATOM     48  P   U   B  41     -15.850   5.290   3.560  0.00  0.00    +0.000 P 
ATOM     49  OP1 U   B  41     -14.431   5.317   3.129  0.00  0.00    +0.000 OA
BRANCH  48  50
ATOM     50  OP2 U   B  41     -16.351   4.157   4.377  0.00  0.00    +0.000 OA
ATOM     51  H   U   B  41     -16.176   3.323   3.914  0.00  0.00    +0.000 HD
ENDBRANCH  48  50
BRANCH  48  52
ATOM     52  O5' U   B  41     -16.159   6.642   4.360  0.00  0.00    +0.000 OA
BRANCH  52  53
ATOM     53  C5' U   B  41     -15.721   7.902   3.871  0.00  0.00    +0.000 C 
BRANCH  53  54
ATOM     54  C4' U   B  41     -15.622   8.898   4.995  0.00  0.00    +0.000 C 
ATOM     55  O4' U   B  41     -16.948   9.239   5.473  0.00  0.00    +0.000 OA
ATOM     56  C3' U   B  41     -14.898   8.404   6.231  0.00  0.00    +0.000 C 
ATOM     57  C2' U   B  41     -15.469   9.300   7.325  0.00  0.00    +0.000 C 
ATOM     58  C1' U   B  41     -16.922   9.431   6.874  0.00  0.00    +0.000 C 
BRANCH  58  59
ATOM     59  N1  U   B  41     -17.813   8.434   7.506  0.00  0.00    +0.000 N 
ATOM     60  C2  U   B  41     -18.150   8.611   8.836  0.00  0.00    +0.000 A 
ATOM     61  O2  U   B  41     -17.737   9.538   9.506  0.00  0.00    +0.000 OA
ATOM     62  N3  U   B  41     -18.987   7.653   9.356  0.00  0.00    +0.000 N 
ATOM     63  C4  U   B  41     -19.514   6.560   8.696  0.00  0.00    +0.000 A 
ATOM     64  O4  U   B  41     -20.257   5.787   9.299  0.00  0.00    +0.000 OA
ATOM     65  C5  U   B  41     -19.120   6.447   7.326  0.00  0.00    +0.000 A 
ATOM     66  C6  U   B  41     -18.307   7.368   6.789  0.00  0.00    +0.000 A 
ATOM     67  H   U   B  41     -19.238   7.757  10.302  0.00  0.00    +0.000 HD
ENDBRANCH  58  59
BRANCH  57  68
ATOM     68  O2' U   B  41     -14.861  10.578   7.323  0.00  0.00    +0.000 OA
ATOM     69  H   U   B  41     -14.961  10.982   6.447  0.00  0.00    +0.000 HD
ENDBRANCH  57  68
BRANCH  56  70
ATOM     70  O3' U   B  41     -13.485   8.505   6.100  0.00  0.00    +0.000 OA
BRANCH  70  71
ATOM     71  P   U   B  42     -12.539   7.344   6.672  0.00  0.00    +0.000 P 
ATOM     72  OP2 U   B  42     -13.095   6.030   6.273  0.00  0.00    +0.000 OA
BRANCH  71  73
ATOM     73  OP1 U   B  42     -11.141   7.687   6.319  0.00  0.00    +0.000 OA
ATOM     74  H   U   B  42     -11.019   7.601   5.360  0.00  0.00    +0.000 HD
ENDBRANCH  71  73
BRANCH  71  75
ATOM     75  O5' U   B  42     -12.707   7.494   8.251  0.00  0.00    +0.000 OA
BRANCH  75  76
ATOM     76  C5' U   B  42     -12.219   8.648   8.932  0.00  0.00    +0.000 C 
BRANCH  76  77
ATOM     77  C4' U   B  42     -12.650   8.644  10.377  0.00  0.00    +0.000 C 
ATOM     78  O4' U   B  42     -14.095   8.754  10.466  0.00  0.00    +0.000 OA
ATOM     79  C3' U   B  42     -12.336   7.393  11.163  0.00  0.00    +0.000 C 
ATOM     80  C2' U   B  42     -13.331   7.489  12.319  0.00  0.00    +0.000 C 
ATOM     81  C1' U   B  42     -14.558   8.053  11.606  0.00  0.00    +0.000 C 
BRANCH  81  82
ATOM     82  N1  U   B  42     -15.491   6.986  11.177  0.00  0.00    +0.000 N 
ATOM     83  C2  U   B  42     -16.371   6.494  12.124  0.00  0.00    +0.000 A 
ATOM     84  O2  U   B  42     -16.404   6.904  13.270  0.00  0.00    +0.000 OA
ATOM     85  N3  U   B  42     -17.209   5.500  11.680  0.00  0.00    +0.000 N 
ATOM     86  C4  U   B  42     -17.256   4.958  10.411  0.00  0.00    +0.000 A 
ATOM     87  O4  U   B  42     -18.067   4.067  10.163  0.00  0.00    +0.000 OA
ATOM     88  C5  U   B  42     -16.314   5.519   9.491  0.00  0.00    +0.000 A 
ATOM     89  C6  U   B  42     -15.485   6.491   9.896  0.00  0.00    +0.000 A 
ATOM     90  H   U   B  42     -17.844   5.135  12.337  0.00  0.00    +0.000 HD
ENDBRANCH  81  82
BRANCH  80  91
ATOM     91  O2' U   B  42     -12.902   8.403  13.304  0.00  0.00    +0.000 OA
ATOM     92  H   U   B  42     -12.751   9.270  12.897  0.00  0.00    +0.000 HD
ENDBRANCH  80  91
BRANCH  79  93
ATOM     93  O3' U   B  42     -10.982   7.329  11.593  0.00  0.00    +0.000 OA
BRANCH  93  94
ATOM     94  P   A   B  43     -10.190   5.931  11.537  0.00  0.00    +0.000 P 
ATOM     95  OP2 A   B  43     -10.355   5.341  10.189  0.00  0.00    +0.000 OA
BRANCH  94  96
ATOM     96  OP1 A   B  43      -8.827   6.174  12.071  0.00  0.00    +0.000 OA
ATOM     97  H   A   B  43      -8.333   6.735  11.453  0.00  0.00    +0.000 HD
ENDBRANCH  94  96
BRANCH  94  98
ATOM     98  O5' A   B  43     -10.975   5.006  12.578  0.00  0.00    +0.000 OA
BRANCH  98  99
ATOM     99  C5' A   B  43     -10.936   5.281  13.976  0.00  0.00    +0.000 C 
BRANCH  99 100
ATOM    100  C4' A   B  43     -12.014   4.520  14.716  0.00  0.00    +0.000 C 
ATOM    101  O4' A   B  43     -13.318   4.846  14.163  0.00  0.00    +0.000 OA
ATOM    102  C3' A   B  43     -11.948   3.005  14.621  0.00  0.00    +0.000 C 
ATOM    103  C2' A   B  43     -13.382   2.610  14.949  0.00  0.00    +0.000 C 
ATOM    104  C1' A   B  43     -14.162   3.712  14.233  0.00  0.00    +0.000 C 
BRANCH 104 105
ATOM    105  N9  A   B  43     -14.527   3.308  12.870  0.00  0.00    +0.000 N 
ATOM    106  C8  A   B  43     -13.921   3.656  11.691  0.00  0.00    +0.000 A 
ATOM    107  N7  A   B  43     -14.476   3.119  10.631  0.00  0.00    +0.000 NA
ATOM    108  C5  A   B  43     -15.521   2.364  11.150  0.00  0.00    +0.000 A 
ATOM    109  C6  A   B  43     -16.493   1.550  10.543  0.00  0.00    +0.000 A 
ATOM    110  N1  A   B  43     -17.387   0.939  11.343  0.00  0.00    +0.000 NA
ATOM    111  C2  A   B  43     -17.303   1.138  12.663  0.00  0.00    +0.000 A 
ATOM    112  N3  A   B  43     -16.436   1.880  13.353  0.00  0.00    +0.000 NA
ATOM    113  C4  A   B  43     -15.561   2.471  12.525  0.00  0.00    +0.000 A 
BRANCH 109 114
ATOM    114  N6  A   B  43     -16.571   1.348   9.220  0.00  0.00    +0.000 N 
ATOM    115  H   A   B  43     -15.927   1.785   8.617  0.00  0.00    +0.000 HD
ATOM    116  H   A   B  43     -17.272   0.763   8.852  0.00  0.00    +0.000 HD
ENDBRANCH 109 114
ENDBRANCH 104 105
BRANCH 103 117
ATOM    117  O2' A   B  43     -13.647   2.681  16.340  0.00  0.00    +0.000 OA
ATOM    118  H   A   B  43     -13.449   3.574  16.662  0.00  0.00    +0.000 HD
ENDBRANCH 103 117
BRANCH 102 119
ATOM    119  O3' A   B  43     -10.995   2.427  15.500  0.00  0.00    +0.000 OA
BRANCH 119 120
ATOM    120  P   C   B  44     -10.162   1.128  15.058  0.00  0.00    +0.000 P 
ATOM    121  OP2 C   B  44      -9.614   1.370  13.698  0.00  0.00    +0.000 OA
BRANCH 120 122
ATOM    122  OP1 C   B  44      -9.238   0.780  16.167  0.00  0.00    +0.000 OA
ATOM    123  H   C   B  44      -8.722  -0.004  15.924  0.00  0.00    +0.000 HD
ENDBRANCH 120 122
BRANCH 120 124
ATOM    124  O5' C   B  44     -11.265  -0.018  14.942  0.00  0.00    +0.000 OA
BRANCH 124 125
ATOM    125  C5' C   B  44     -12.012  -0.442  16.077  0.00  0.00    +0.000 C 
BRANCH 125 126
ATOM    126  C4' C   B  44     -13.206  -1.271  15.666  0.00  0.00    +0.000 C 
ATOM    127  O4' C   B  44     -14.018  -0.533  14.713  0.00  0.00    +0.000 OA
ATOM    128  C3' C   B  44     -12.889  -2.574  14.957  0.00  0.00    +0.000 C 
ATOM    129  C2' C   B  44     -14.177  -2.844  14.182  0.00  0.00    +0.000 C 
ATOM    130  C1' C   B  44     -14.604  -1.426  13.784  0.00  0.00    +0.000 C 
BRANCH 130 131
ATOM    131  N1  C   B  44     -14.163  -1.054  12.422  0.00  0.00    +0.000 N 
ATOM    132  C2  C   B  44     -14.903  -1.512  11.328  0.00  0.00    +0.000 A 
ATOM    133  O2  C   B  44     -15.906  -2.214  11.526  0.00  0.00    +0.000 OA
ATOM    134  N3  C   B  44     -14.510  -1.176  10.073  0.00  0.00    +0.000 NA
ATOM    135  C4  C   B  44     -13.426  -0.418   9.892  0.00  0.00    +0.000 A 
ATOM    136  N4  C   B  44     -13.077  -0.117   8.635  0.00  0.00    +0.000 N 
ATOM    137  C5  C   B  44     -12.655   0.062  10.988  0.00  0.00    +0.000 A 
ATOM    138  C6  C   B  44     -13.055  -0.276  12.225  0.00  0.00    +0.000 A 
ATOM    139  H   C   B  44     -13.614  -0.452   7.881  0.00  0.00    +0.000 HD
ATOM    140  H   C   B  44     -12.283   0.439   8.464  0.00  0.00    +0.000 HD
ENDBRANCH 130 131
BRANCH 129 141
ATOM    141  O2' C   B  44     -15.179  -3.417  15.006  0.00  0.00    +0.000 OA
ATOM    142  H   C   B  44     -15.346  -2.835  15.764  0.00  0.00    +0.000 HD
ENDBRANCH 129 141
BRANCH 128 143
ATOM    143  O3' C   B  44     -12.566  -3.612  15.870  0.00  0.00    +0.000 OA
BRANCH 143 144
ATOM    144  P   U   B  45     -11.470  -4.714  15.544  0.00  0.00    +0.000 P 
ATOM    145  OP2 U   B  45     -10.354  -4.044  14.826  0.00  0.00    +0.000 OA
BRANCH 144 146
ATOM    146  OP1 U   B  45     -11.198  -5.468  16.788  0.00  0.00    +0.000 OA
ATOM    147  H   U   B  45     -10.530  -6.149  16.614  0.00  0.00    +0.000 HD
ENDBRANCH 144 146
BRANCH 144 148
ATOM    148  O5' U   B  45     -12.201  -5.697  14.514  0.00  0.00    +0.000 OA
BRANCH 148 149
ATOM    149  C5' U   B  45     -13.408  -6.364  14.868  0.00  0.00    +0.000 C 
BRANCH 149 150
ATOM    150  C4' U   B  45     -13.747  -7.441  13.866  0.00  0.00    +0.000 C 
ATOM    151  O4' U   B  45     -13.953  -6.851  12.553  0.00  0.00    +0.000 OA
ATOM    152  C3' U   B  45     -12.664  -8.478  13.638  0.00  0.00    +0.000 C 
ATOM    153  C2' U   B  45     -13.007  -9.009  12.249  0.00  0.00    +0.000 C 
ATOM    154  C1' U   B  45     -13.486  -7.735  11.546  0.00  0.00    +0.000 C 
BRANCH 154 155
ATOM    155  N1  U   B  45     -12.411  -7.070  10.780  0.00  0.00    +0.000 N 
ATOM    156  C2  U   B  45     -12.016  -7.641   9.580  0.00  0.00    +0.000 A 
ATOM    157  O2  U   B  45     -12.501  -8.669   9.144  0.00  0.00    +0.000 OA
ATOM    158  N3  U   B  45     -11.019  -6.966   8.912  0.00  0.00    +0.000 N 
ATOM    159  C4  U   B  45     -10.390  -5.801   9.306  0.00  0.00    +0.000 A 
ATOM    160  O4  U   B  45      -9.512  -5.316   8.590  0.00  0.00    +0.000 OA
ATOM    161  C5  U   B  45     -10.853  -5.271  10.551  0.00  0.00    +0.000 A 
ATOM    162  C6  U   B  45     -11.827  -5.906  11.227  0.00  0.00    +0.000 A 
ATOM    163  H   U   B  45     -10.721  -7.357   8.059  0.00  0.00    +0.000 HD
ENDBRANCH 154 155
BRANCH 153 164
ATOM    164  O2' U   B  45     -14.066  -9.945  12.299  0.00  0.00    +0.000 OA
ATOM    165  H   U   B  45     -14.838  -9.538  12.723  0.00  0.00    +0.000 HD
ENDBRANCH 153 164
BRANCH 152 166
ATOM    166  O3' U   B  45     -12.663  -9.486  14.642  0.00  0.00    +0.000 OA
BRANCH 166 167
ATOM    167  P   U   B  46     -11.293 -10.084  15.211  0.00  0.00    +0.000 P 
ATOM    168  OP2 U   B  46     -10.334  -8.962  15.391  0.00  0.00    +0.000 OA
BRANCH 167 169
ATOM    169  OP1 U   B  46     -11.609 -10.973  16.359  0.00  0.00    +0.000 OA
ATOM    170  H   U   B  46     -12.246 -11.649  16.079  0.00  0.00    +0.000 HD
ENDBRANCH 167 169
BRANCH 167 171
ATOM    171  O5' U   B  46     -10.776 -10.987  14.005  0.00  0.00    +0.000 OA
BRANCH 171 172
ATOM    172  C5' U   B  46     -11.505 -12.138  13.584  0.00  0.00    +0.000 C 
BRANCH 172 173
ATOM    173  C4' U   B  46     -11.014 -12.635  12.245  0.00  0.00    +0.000 C 
ATOM    174  O4' U   B  46     -11.207 -11.608  11.233  0.00  0.00    +0.000 OA
ATOM    175  C3' U   B  46      -9.534 -12.954  12.157  0.00  0.00    +0.000 C 
ATOM    176  C2' U   B  46      -9.285 -12.868  10.655  0.00  0.00    +0.000 C 
ATOM    177  C1' U   B  46     -10.167 -11.681  10.272  0.00  0.00    +0.000 C 
BRANCH 177 178
ATOM    178  N1  U   B  46      -9.414 -10.405  10.274  0.00  0.00    +0.000 N 
ATOM    179  C2  U   B  46      -8.644 -10.117   9.159  0.00  0.00    +0.000 A 
ATOM    180  O2  U   B  46      -8.568 -10.863   8.199  0.00  0.00    +0.000 OA
ATOM    181  N3  U   B  46      -7.962  -8.921   9.210  0.00  0.00    +0.000 N 
ATOM    182  C4  U   B  46      -7.971  -8.004  10.240  0.00  0.00    +0.000 A 
ATOM    183  O4  U   B  46      -7.304  -6.974  10.137  0.00  0.00    +0.000 OA
ATOM    184  C5  U   B  46      -8.789  -8.374  11.357  0.00  0.00    +0.000 A 
ATOM    185  C6  U   B  46      -9.466  -9.533  11.335  0.00  0.00    +0.000 A 
ATOM    186  H   U   B  46      -7.409  -8.697   8.427  0.00  0.00    +0.000 HD
ENDBRANCH 177 178
BRANCH 176 187
ATOM    187  O2' U   B  46      -9.745 -14.023   9.980  0.00  0.00    +0.000 OA
ATOM    188  H   U   B  46     -10.686 -14.157  10.172  0.00  0.00    +0.000 HD
ENDBRANCH 176 187
BRANCH 175 189
ATOM    189  O3' U   B  46      -9.205 -14.219  12.716  0.00  0.00    +0.000 OA
BRANCH 189 190
ATOM    190  P   U   B  47      -7.752 -14.480  13.336  0.00  0.00    +0.000 P 
ATOM    191  OP1 U   B  47      -7.781 -15.788  14.038  0.00  0.00    +0.000 OA
BRANCH 190 192
ATOM    192  OP2 U   B  47      -7.321 -13.262  14.069  0.00  0.00    +0.000 OA
ATOM    193  H   U   B  47      -7.358 -12.497  13.474  0.00  0.00    +0.000 HD
ENDBRANCH 190 192
BRANCH 190 194
ATOM    194  O5' U   B  47      -6.836 -14.624  12.033  0.00  0.00    +0.000 OA
BRANCH 194 195
ATOM    195  C5' U   B  47      -7.030 -15.700  11.121  0.00  0.00    +0.000 C 
BRANCH 195 196
ATOM    196  C4' U   B  47      -6.228 -15.505   9.852  0.00  0.00    +0.000 C 
ATOM    197  O4' U   B  47      -6.611 -14.264   9.197  0.00  0.00    +0.000 OA
ATOM    198  C3' U   B  47      -4.730 -15.372  10.023  0.00  0.00    +0.000 C 
ATOM    199  C2' U   B  47      -4.328 -14.692   8.715  0.00  0.00    +0.000 C 
ATOM    200  C1' U   B  47      -5.497 -13.731   8.501  0.00  0.00    +0.000 C 
BRANCH 200 201
ATOM    201  N1  U   B  47      -5.207 -12.369   9.006  0.00  0.00    +0.000 N 
ATOM    202  C2  U   B  47      -4.449 -11.537   8.196  0.00  0.00    +0.000 A 
ATOM    203  O2  U   B  47      -4.024 -11.884   7.109  0.00  0.00    +0.000 OA
ATOM    204  N3  U   B  47      -4.205 -10.282   8.708  0.00  0.00    +0.000 N 
ATOM    205  C4  U   B  47      -4.632  -9.784   9.923  0.00  0.00    +0.000 A 
ATOM    206  O4  U   B  47      -4.330  -8.632  10.245  0.00  0.00    +0.000 OA
ATOM    207  C5  U   B  47      -5.407 -10.705  10.703  0.00  0.00    +0.000 A 
ATOM    208  C6  U   B  47      -5.663 -11.933  10.231  0.00  0.00    +0.000 A 
ATOM    209  H   U   B  47      -3.669  -9.675   8.148  0.00  0.00    +0.000 HD
ENDBRANCH 200 201
BRANCH 199 210
ATOM    210  O2' U   B  47      -4.276 -15.610   7.640  0.00  0.00    +0.000 OA
ATOM    211  H   U   B  47      -5.133 -16.055   7.553  0.00  0.00    +0.000 HD
ENDBRANCH 199 210
BRANCH 198 212
ATOM    212  O3' U   B  47      -4.085 -16.624  10.227  0.00  0.00    +0.000 OA
BRANCH 212 213
ATOM    213  P   A   B  48      -2.713 -16.702  11.057  0.00  0.00    +0.000 P 
ATOM    214  OP1 A   B  48      -2.430 -18.134  11.338  0.00  0.00    +0.000 OA
BRANCH 213 215
ATOM    215  OP2 A   B  48      -2.773 -15.731  12.182  0.00  0.00    +0.000 OA
ATOM    216  H   A   B  48      -2.965 -14.846  11.835  0.00  0.00    +0.000 HD
ENDBRANCH 213 215
BRANCH 213 217
ATOM    217  O5' A   B  48      -1.636 -16.174  10.001  0.00  0.00    +0.000 OA
BRANCH 217 218
ATOM    218  C5' A   B  48      -1.345 -16.912   8.819  0.00  0.00    +0.000 C 
BRANCH 218 219
ATOM    219  C4' A   B  48      -0.481 -16.108   7.872  0.00  0.00    +0.000 C 
ATOM    220  O4' A   B  48      -1.178 -14.896   7.472  0.00  0.00    +0.000 OA
ATOM    221  C3' A   B  48       0.832 -15.605   8.444  0.00  0.00    +0.000 C 
ATOM    222  C2' A   B  48       1.146 -14.429   7.524  0.00  0.00    +0.000 C 
ATOM    223  C1' A   B  48      -0.246 -13.843   7.293  0.00  0.00    +0.000 C 
BRANCH 223 224
ATOM    224  N9  A   B  48      -0.569 -12.766   8.242  0.00  0.00    +0.000 N 
ATOM    225  C8  A   B  48      -1.329 -12.839   9.383  0.00  0.00    +0.000 A 
ATOM    226  N7  A   B  48      -1.440 -11.697  10.017  0.00  0.00    +0.000 NA
ATOM    227  C5  A   B  48      -0.701 -10.811   9.244  0.00  0.00    +0.000 A 
ATOM    228  C6  A   B  48      -0.424  -9.440   9.379  0.00  0.00    +0.000 A 
ATOM    229  N6  A   B  48      -0.880  -8.684  10.391  0.00  0.00    +0.000 N 
ATOM    230  N1  A   B  48       0.344  -8.860   8.435  0.00  0.00    +0.000 NA
ATOM    231  C2  A   B  48       0.801  -9.612   7.427  0.00  0.00    +0.000 A 
ATOM    232  N3  A   B  48       0.610 -10.907   7.191  0.00  0.00    +0.000 NA
ATOM    233  C4  A   B  48      -0.159 -11.455   8.149  0.00  0.00    +0.000 A 
ATOM    234  H   A   B  48      -0.652  -7.727  10.432  0.00  0.00    +0.000 HD
ATOM    235  H   A   B  48      -1.442  -9.087  11.092  0.00  0.00    +0.000 HD
ENDBRANCH 223 224
BRANCH 222 236
ATOM    236  O2' A   B  48       1.684 -14.858   6.287  0.00  0.00    +0.000 OA
ATOM    237  H   A   B  48       1.069 -15.477   5.864  0.00  0.00    +0.000 HD
ENDBRANCH 222 236
BRANCH 221 238
ATOM    238  O3' A   B  48       1.848 -16.601   8.444  0.00  0.00    +0.000 OA
BRANCH 238 239
ATOM    239  P   U   B  49       2.978 -16.608   9.584  0.00  0.00    +0.000 P 
ATOM    240  OP1 U   B  49       3.721 -17.889   9.469  0.00  0.00    +0.000 OA
BRANCH 239 241
ATOM    241  OP2 U   B  49       2.355 -16.234  10.881  0.00  0.00    +0.000 OA
ATOM    242  H   U   B  49       1.911 -15.376  10.791  0.00  0.00    +0.000 HD
ENDBRANCH 239 241
BRANCH 239 243
ATOM    243  O5' U   B  49       3.949 -15.420   9.138  0.00  0.00    +0.000 OA
BRANCH 243 244
ATOM    244  C5' U   B  49       4.707 -15.497   7.936  0.00  0.00    +0.000 C 
BRANCH 244 245
ATOM    245  C4' U   B  49       5.339 -14.166   7.596  0.00  0.00    +0.000 C 
ATOM    246  O4' U   B  49       4.305 -13.160   7.399  0.00  0.00    +0.000 OA
ATOM    247  C3' U   B  49       6.232 -13.564   8.663  0.00  0.00    +0.000 C 
ATOM    248  C2' U   B  49       6.230 -12.088   8.279  0.00  0.00    +0.000 C 
ATOM    249  C1' U   B  49       4.777 -11.898   7.836  0.00  0.00    +0.000 C 
BRANCH 249 250
ATOM    250  N1  U   B  49       3.913 -11.417   8.940  0.00  0.00    +0.000 N 
ATOM    251  C2  U   B  49       3.921 -10.060   9.217  0.00  0.00    +0.000 A 
ATOM    252  O2  U   B  49       4.600  -9.263   8.595  0.00  0.00    +0.000 OA
ATOM    253  N3  U   B  49       3.101  -9.671  10.250  0.00  0.00    +0.000 N 
ATOM    254  C4  U   B  49       2.295 -10.481  11.022  0.00  0.00    +0.000 A 
ATOM    255  O4  U   B  49       1.612  -9.985  11.920  0.00  0.00    +0.000 OA
ATOM    256  C5  U   B  49       2.342 -11.868  10.677  0.00  0.00    +0.000 A 
ATOM    257  C6  U   B  49       3.130 -12.279   9.672  0.00  0.00    +0.000 A 
ATOM    258  H   U   B  49       3.088  -8.710  10.461  0.00  0.00    +0.000 HD
ENDBRANCH 249 250
BRANCH 248 259
ATOM    259  O2' U   B  49       7.087 -11.826   7.187  0.00  0.00    +0.000 OA
ATOM    260  H   U   B  49       6.832 -12.383   6.435  0.00  0.00    +0.000 HD
ENDBRANCH 248 259
BRANCH 247 261
ATOM    261  O3' U   B  49       7.536 -14.137   8.685  0.00  0.00    +0.000 OA
BRANCH 261 262
ATOM    262  P   U   B  50       8.334 -14.247  10.075  0.00  0.00    +0.000 P 
ATOM    263  OP1 U   B  50       9.558 -15.046   9.818  0.00  0.00    +0.000 OA
BRANCH 262 264
ATOM    264  OP2 U   B  50       7.388 -14.676  11.140  0.00  0.00    +0.000 OA
ATOM    265  H   U   B  50       7.109 -15.590  10.976  0.00  0.00    +0.000 HD
ENDBRANCH 262 264
BRANCH 262 266
ATOM    266  O5' U   B  50       8.770 -12.740  10.379  0.00  0.00    +0.000 OA
BRANCH 266 267
ATOM    267  C5' U   B  50       9.707 -12.062   9.547  0.00  0.00    +0.000 C 
BRANCH 267 268
ATOM    268  C4' U   B  50       9.734 -10.579   9.838  0.00  0.00    +0.000 C 
ATOM    269  O4' U   B  50       8.409 -10.011   9.647  0.00  0.00    +0.000 OA
ATOM    270  C3' U   B  50      10.098 -10.183  11.255  0.00  0.00    +0.000 C 
ATOM    271  C2' U   B  50       9.514  -8.779  11.346  0.00  0.00    +0.000 C 
ATOM    272  C1' U   B  50       8.212  -8.946  10.561  0.00  0.00    +0.000 C 
BRANCH 272 273
ATOM    273  N1  U   B  50       7.067  -9.274  11.444  0.00  0.00    +0.000 N 
ATOM    274  C2  U   B  50       6.461  -8.229  12.121  0.00  0.00    +0.000 A 
ATOM    275  O2  U   B  50       6.830  -7.074  12.016  0.00  0.00    +0.000 OA
ATOM    276  N3  U   B  50       5.405  -8.590  12.927  0.00  0.00    +0.000 N 
ATOM    277  C4  U   B  50       4.906  -9.859  13.125  0.00  0.00    +0.000 A 
ATOM    278  O4  U   B  50       3.950 -10.025  13.883  0.00  0.00    +0.000 OA
ATOM    279  C5  U   B  50       5.584 -10.884  12.394  0.00  0.00    +0.000 A 
ATOM    280  C6  U   B  50       6.615 -10.565  11.599  0.00  0.00    +0.000 A 
ATOM    281  H   U   B  50       4.957  -7.862  13.415  0.00  0.00    +0.000 HD
ENDBRANCH 272 273
BRANCH 271 282
ATOM    282  O2' U   B  50      10.329  -7.825  10.694  0.00  0.00    +0.000 OA
ATOM    283  H   U   B  50      10.460  -8.089   9.770  0.00  0.00    +0.000 HD
ENDBRANCH 271 282
BRANCH 270 284
ATOM    284  O3' U   B  50      11.496 -10.224  11.506  0.00  0.00    +0.000 OA
BRANCH 284 285
ATOM    285  P   U   B  51      12.035 -10.531  12.988  0.00  0.00    +0.000 P 
ATOM    286  OP1 U   B  51      13.507 -10.670  12.902  0.00  0.00    +0.000 OA
BRANCH 285 287
ATOM    287  OP2 U   B  51      11.225 -11.633  13.574  0.00  0.00    +0.000 OA
ATOM    288  H   U   B  51      11.411 -12.458  13.099  0.00  0.00    +0.000 HD
ENDBRANCH 285 287
BRANCH 285 289
ATOM    289  O5' U   B  51      11.700  -9.191  13.797  0.00  0.00    +0.000 OA
BRANCH 289 290
ATOM    290  C5' U   B  51      12.352  -7.962  13.493  0.00  0.00    +0.000 C 
BRANCH 290 291
ATOM    291  C4' U   B  51      11.675  -6.792  14.172  0.00  0.00    +0.000 C 
ATOM    292  O4' U   B  51      10.272  -6.742  13.792  0.00  0.00    +0.000 OA
ATOM    293  C3' U   B  51      11.638  -6.830  15.687  0.00  0.00    +0.000 C 
ATOM    294  C2' U   B  51      10.480  -5.891  15.997  0.00  0.00    +0.000 C 
ATOM    295  C1' U   B  51       9.502  -6.241  14.872  0.00  0.00    +0.000 C 
BRANCH 295 296
ATOM    296  N1  U   B  51       8.517  -7.269  15.282  0.00  0.00    +0.000 N 
ATOM    297  C2  U   B  51       7.443  -6.856  16.053  0.00  0.00    +0.000 A 
ATOM    298  O2  U   B  51       7.287  -5.699  16.397  0.00  0.00    +0.000 OA
ATOM    299  N3  U   B  51       6.557  -7.850  16.405  0.00  0.00    +0.000 N 
ATOM    300  C4  U   B  51       6.636  -9.185  16.076  0.00  0.00    +0.000 A 
ATOM    301  O4  U   B  51       5.763  -9.961  16.468  0.00  0.00    +0.000 OA
ATOM    302  C5  U   B  51       7.774  -9.535  15.280  0.00  0.00    +0.000 A 
ATOM    303  C6  U   B  51       8.653  -8.590  14.920  0.00  0.00    +0.000 A 
ATOM    304  H   U   B  51       5.784  -7.577  16.950  0.00  0.00    +0.000 HD
ENDBRANCH 295 296
BRANCH 294 305
ATOM    305  O2' U   B  51      10.857  -4.533  15.879  0.00  0.00    +0.000 OA
ATOM    306  H   U   B  51      11.210  -4.372  14.990  0.00  0.00    +0.000 HD
ENDBRANCH 294 305
BRANCH 293 307
ATOM    307  O3' U   B  51      12.862  -6.418  16.280  0.00  0.00    +0.000 OA
BRANCH 307 308
ATOM    308  P   U   B  52      13.285  -6.984  17.726  0.00  0.00    +0.000 P 
ATOM    309  OP2 U   B  52      12.992  -8.441  17.769  0.00  0.00    +0.000 OA
BRANCH 308 310
ATOM    310  OP1 U   B  52      14.659  -6.504  18.000  0.00  0.00    +0.000 OA
ATOM    311  H   U   B  52      15.280  -6.939  17.395  0.00  0.00    +0.000 HD
ENDBRANCH 308 310
BRANCH 308 312
ATOM    312  O5' U   B  52      12.284  -6.252  18.737  0.00  0.00    +0.000 OA
BRANCH 312 313
ATOM    313  C5' U   B  52      12.354  -4.848  18.955  0.00  0.00    +0.000 C 
BRANCH 313 314
ATOM    314  C4' U   B  52      11.164  -4.348  19.746  0.00  0.00    +0.000 C 
ATOM    315  O4' U   B  52       9.930  -4.679  19.050  0.00  0.00    +0.000 OA
ATOM    316  C3' U   B  52      10.977  -4.954  21.121  0.00  0.00    +0.000 C 
ATOM    317  C2' U   B  52       9.501  -4.684  21.383  0.00  0.00    +0.000 C 
ATOM    318  C1' U   B  52       8.902  -4.928  19.994  0.00  0.00    +0.000 C 
BRANCH 318 319
ATOM    319  N1  U   B  52       8.416  -6.320  19.826  0.00  0.00    +0.000 N 
ATOM    320  C2  U   B  52       7.189  -6.637  20.383  0.00  0.00    +0.000 A 
ATOM    321  O2  U   B  52       6.511  -5.829  20.990  0.00  0.00    +0.000 OA
ATOM    322  N3  U   B  52       6.782  -7.941  20.200  0.00  0.00    +0.000 N 
ATOM    323  C4  U   B  52       7.465  -8.937  19.535  0.00  0.00    +0.000 A 
ATOM    324  O4  U   B  52       6.972 -10.062  19.455  0.00  0.00    +0.000 OA
ATOM    325  C5  U   B  52       8.727  -8.531  18.990  0.00  0.00    +0.000 A 
ATOM    326  C6  U   B  52       9.149  -7.269  19.151  0.00  0.00    +0.000 A 
ATOM    327  H   U   B  52       5.910  -8.188  20.585  0.00  0.00    +0.000 HD
ENDBRANCH 318 319
BRANCH 317 328
ATOM    328  O2' U   B  52       9.271  -3.341  21.760  0.00  0.00    +0.000 OA
ATOM    329  H   U   B  52       9.620  -2.749  21.075  0.00  0.00    +0.000 HD
ENDBRANCH 317 328
BRANCH 316 330
ATOM    330  O3' U   B  52      11.832  -4.379  22.098  0.00  0.00    +0.000 OA
BRANCH 330 331
ATOM    331  P   A   B  53      12.275  -5.247  23.382  0.00  0.00    +0.000 P 
ATOM    332  OP2 A   B  53      12.585  -6.632  22.940  0.00  0.00    +0.000 OA
BRANCH 331 333
ATOM    333  OP1 A   B  53      13.301  -4.462  24.108  0.00  0.00    +0.000 OA
ATOM    334  H   A   B  53      14.110  -4.416  23.575  0.00  0.00    +0.000 HD
ENDBRANCH 331 333
BRANCH 331 335
ATOM    335  O5' A   B  53      10.954  -5.306  24.283  0.00  0.00    +0.000 OA
BRANCH 335 336
ATOM    336  C5' A   B  53      10.432  -4.130  24.898  0.00  0.00    +0.000 C 
BRANCH 336 337
ATOM    337  C4' A   B  53       9.087  -4.392  25.538  0.00  0.00    +0.000 C 
ATOM    338  O4' A   B  53       8.137  -4.839  24.528  0.00  0.00    +0.000 OA
ATOM    339  C3' A   B  53       9.053  -5.496  26.579  0.00  0.00    +0.000 C 
ATOM    340  C2' A   B  53       7.577  -5.874  26.589  0.00  0.00    +0.000 C 
ATOM    341  C1' A   B  53       7.231  -5.762  25.101  0.00  0.00    +0.000 C 
BRANCH 341 342
ATOM    342  N9  A   B  53       7.358  -7.048  24.398  0.00  0.00    +0.000 N 
ATOM    343  C8  A   B  53       8.372  -7.471  23.573  0.00  0.00    +0.000 A 
ATOM    344  N7  A   B  53       8.192  -8.678  23.089  0.00  0.00    +0.000 NA
ATOM    345  C5  A   B  53       6.977  -9.078  23.633  0.00  0.00    +0.000 A 
ATOM    346  C6  A   B  53       6.225 -10.260  23.509  0.00  0.00    +0.000 A 
ATOM    347  N1  A   B  53       5.060 -10.339  24.185  0.00  0.00    +0.000 NA
ATOM    348  C2  A   B  53       4.679  -9.296  24.934  0.00  0.00    +0.000 A 
ATOM    349  N3  A   B  53       5.296  -8.128  25.128  0.00  0.00    +0.000 NA
ATOM    350  C4  A   B  53       6.454  -8.084  24.441  0.00  0.00    +0.000 A 
BRANCH 346 351
ATOM    351  N6  A   B  53       6.610 -11.307  22.761  0.00  0.00    +0.000 N 
ATOM    352  H   A   B  53       7.457 -11.269  22.260  0.00  0.00    +0.000 HD
ATOM    353  H   A   B  53       6.046 -12.112  22.714  0.00  0.00    +0.000 HD
ENDBRANCH 346 351
ENDBRANCH 341 342
BRANCH 340 354
ATOM    354  O2' A   B  53       6.798  -4.946  27.323  0.00  0.00    +0.000 OA
ATOM    355  H   A   B  53       6.928  -4.056  26.960  0.00  0.00    +0.000 HD
ENDBRANCH 340 354
BRANCH 339 356
ATOM    356  O3' A   B  53       9.525  -5.064  27.849  0.00  0.00    +0.000 OA
BRANCH 356 357
ATOM    357  P   A   B  54      10.218  -6.119  28.850  0.00  0.00    +0.000 P 
ATOM    358  OP2 A   B  54      11.090  -7.031  28.063  0.00  0.00    +0.000 OA
BRANCH 357 359
ATOM    359  OP1 A   B  54      10.799  -5.339  29.971  0.00  0.00    +0.000 OA
ATOM    360  H   A   B  54      11.543  -4.810  29.645  0.00  0.00    +0.000 HD
ENDBRANCH 357 359
BRANCH 357 361
ATOM    361  O5' A   B  54       8.998  -6.978  29.417  0.00  0.00    +0.000 OA
BRANCH 361 362
ATOM    362  C5' A   B  54       8.020  -6.389  30.272  0.00  0.00    +0.000 C 
BRANCH 362 363
ATOM    363  C4' A   B  54       6.846  -7.316  30.483  0.00  0.00    +0.000 C 
ATOM    364  O4' A   B  54       6.226  -7.627  29.203  0.00  0.00    +0.000 OA
ATOM    365  C3' A   B  54       7.172  -8.679  31.067  0.00  0.00    +0.000 C 
ATOM    366  C2' A   B  54       5.966  -9.500  30.633  0.00  0.00    +0.000 C 
ATOM    367  C1' A   B  54       5.729  -8.953  29.222  0.00  0.00    +0.000 C 
BRANCH 367 368
ATOM    368  N9  A   B  54       6.435  -9.739  28.201  0.00  0.00    +0.000 N 
ATOM    369  C8  A   B  54       7.620  -9.452  27.572  0.00  0.00    +0.000 A 
ATOM    370  N7  A   B  54       7.991 -10.363  26.701  0.00  0.00    +0.000 NA
ATOM    371  C5  A   B  54       6.982 -11.316  26.763  0.00  0.00    +0.000 A 
ATOM    372  C6  A   B  54       6.781 -12.533  26.087  0.00  0.00    +0.000 A 
ATOM    373  N1  A   B  54       5.674 -13.242  26.384  0.00  0.00    +0.000 NA
ATOM    374  C2  A   B  54       4.826 -12.762  27.299  0.00  0.00    +0.000 A 
ATOM    375  N3  A   B  54       4.901 -11.629  28.004  0.00  0.00    +0.000 NA
ATOM    376  C4  A   B  54       6.019 -10.945  27.683  0.00  0.00    +0.000 A 
BRANCH 372 377
ATOM    377  N6  A   B  54       7.633 -13.019  25.171  0.00  0.00    +0.000 N 
ATOM    378  H   A   B  54       7.443 -13.877  24.728  0.00  0.00    +0.000 HD
ATOM    379  H   A   B  54       8.448 -12.517  24.942  0.00  0.00    +0.000 HD
ENDBRANCH 372 377
ENDBRANCH 367 368
BRANCH 366 380
ATOM    380  O2' A   B  54       4.831  -9.238  31.434  0.00  0.00    +0.000 OA
ATOM    381  H   A   B  54       4.633  -8.289  31.413  0.00  0.00    +0.000 HD
ENDBRANCH 366 380
BRANCH 365 382
ATOM    382  O3' A   B  54       7.350  -8.651  32.475  0.00  0.00    +0.000 OA
BRANCH 382 383
ATOM    383  P   A   B  55       8.356  -9.691  33.191  0.00  0.00    +0.000 P 
ATOM    384  OP2 A   B  55       9.598  -9.773  32.377  0.00  0.00    +0.000 OA
BRANCH 383 385
ATOM    385  OP1 A   B  55       8.443  -9.316  34.625  0.00  0.00    +0.000 OA
ATOM    386  H   A   B  55       8.895  -8.462  34.709  0.00  0.00    +0.000 HD
ENDBRANCH 383 385
BRANCH 383 387
ATOM    387  O5' A   B  55       7.610 -11.097  33.085  0.00  0.00    +0.000 OA
BRANCH 387 388
ATOM    388  C5' A   B  55       6.426 -11.352  33.838  0.00  0.00    +0.000 C 
BRANCH 388 389
ATOM    389  C4' A   B  55       5.738 -12.612  33.369  0.00  0.00    +0.000 C 
ATOM    390  O4' A   B  55       5.473 -12.527  31.943  0.00  0.00    +0.000 OA
ATOM    391  C3' A   B  55       6.530 -13.901  33.512  0.00  0.00    +0.000 C 
ATOM    392  C2' A   B  55       5.839 -14.801  32.500  0.00  0.00    +0.000 C 
ATOM    393  C1' A   B  55       5.566 -13.816  31.361  0.00  0.00    +0.000 C 
BRANCH 393 394
ATOM    394  N9  A   B  55       6.644 -13.819  30.362  0.00  0.00    +0.000 N 
ATOM    395  C8  A   B  55       7.652 -12.903  30.192  0.00  0.00    +0.000 A 
ATOM    396  N7  A   B  55       8.466 -13.194  29.202  0.00  0.00    +0.000 NA
ATOM    397  C5  A   B  55       7.960 -14.383  28.691  0.00  0.00    +0.000 A 
ATOM    398  C6  A   B  55       8.369 -15.213  27.633  0.00  0.00    +0.000 A 
ATOM    399  N1  A   B  55       7.647 -16.326  27.389  0.00  0.00    +0.000 NA
ATOM    400  C2  A   B  55       6.583 -16.585  28.159  0.00  0.00    +0.000 A 
ATOM    401  N3  A   B  55       6.096 -15.880  29.181  0.00  0.00    +0.000 NA
ATOM    402  C4  A   B  55       6.841 -14.779  29.397  0.00  0.00    +0.000 A 
BRANCH 398 403
ATOM    403  N6  A   B  55       9.439 -14.958  26.863  0.00  0.00    +0.000 N 
ATOM    404  H   A   B  55       9.680 -15.575  26.135  0.00  0.00    +0.000 HD
ATOM    405  H   A   B  55       9.983 -14.154  27.027  0.00  0.00    +0.000 HD
ENDBRANCH 398 403
ENDBRANCH 393 394
BRANCH 392 406
ATOM    406  O2' A   B  55       4.610 -15.303  32.990  0.00  0.00    +0.000 OA
ATOM    407  H   A   B  55       4.037 -14.563  33.246  0.00  0.00    +0.000 HD
ENDBRANCH 392 406
BRANCH 391 408
ATOM    408  O3' A   B  55       6.503 -14.422  34.832  0.00  0.00    +0.000 OA
BRANCH 408 409
ATOM    409  P   A   B  56       7.726 -15.305  35.407  0.00  0.00    +0.000 P 
ATOM    410  OP2 A   B  56       8.997 -14.655  34.986  0.00  0.00    +0.000 OA
BRANCH 409 411
ATOM    411  OP1 A   B  56       7.473 -15.558  36.848  0.00  0.00    +0.000 OA
ATOM    412  H   A   B  56       6.608 -15.984  36.955  0.00  0.00    +0.000 HD
ENDBRANCH 409 411
BRANCH 409 413
ATOM    413  O5' A   B  56       7.602 -16.688  34.626  0.00  0.00    +0.000 OA
BRANCH 413 414
ATOM    414  C5' A   B  56       6.517 -17.572  34.883  0.00  0.00    +0.000 C 
BRANCH 414 415
ATOM    415  C4' A   B  56       6.514 -18.727  33.909  0.00  0.00    +0.000 C 
ATOM    416  O4' A   B  56       6.431 -18.223  32.548  0.00  0.00    +0.000 OA
ATOM    417  C3' A   B  56       7.760 -19.595  33.900  0.00  0.00    +0.000 C 
ATOM    418  C2' A   B  56       7.680 -20.239  32.522  0.00  0.00    +0.000 C 
ATOM    419  C1' A   B  56       7.145 -19.084  31.676  0.00  0.00    +0.000 C 
BRANCH 419 420
ATOM    420  N9  A   B  56       8.221 -18.322  31.027  0.00  0.00    +0.000 N 
ATOM    421  C8  A   B  56       8.761 -17.117  31.402  0.00  0.00    +0.000 A 
ATOM    422  N7  A   B  56       9.715 -16.693  30.603  0.00  0.00    +0.000 NA
ATOM    423  C5  A   B  56       9.811 -17.690  29.640  0.00  0.00    +0.000 A 
ATOM    424  C6  A   B  56      10.634 -17.843  28.511  0.00  0.00    +0.000 A 
ATOM    425  N1  A   B  56      10.476 -18.953  27.762  0.00  0.00    +0.000 NA
ATOM    426  C2  A   B  56       9.550 -19.850  28.125  0.00  0.00    +0.000 A 
ATOM    427  N3  A   B  56       8.714 -19.817  29.163  0.00  0.00    +0.000 NA
ATOM    428  C4  A   B  56       8.900 -18.697  29.889  0.00  0.00    +0.000 A 
BRANCH 424 429
ATOM    429  N6  A   B  56      11.566 -16.946  28.146  0.00  0.00    +0.000 N 
ATOM    430  H   A   B  56      12.115 -17.105  27.344  0.00  0.00    +0.000 HD
ATOM    431  H   A   B  56      11.700 -16.130  28.680  0.00  0.00    +0.000 HD
ENDBRANCH 424 429
ENDBRANCH 419 420
BRANCH 418 432
ATOM    432  O2' A   B  56       6.755 -21.308  32.492  0.00  0.00    +0.000 OA
ATOM    433  H   A   B  56       5.884 -20.990  32.778  0.00  0.00    +0.000 HD
ENDBRANCH 418 432
BRANCH 417 434
ATOM    434  O3' A   B  56       7.772 -20.542  34.959  0.00  0.00    +0.000 OA
BRANCH 434 435
ATOM    435  P   A   B  57       9.157 -21.077  35.596  0.00  0.00    +0.000 P 
ATOM    436  OP2 A   B  57      10.078 -19.913  35.727  0.00  0.00    +0.000 OA
BRANCH 435 437
ATOM    437  OP1 A   B  57       8.850 -21.901  36.789  0.00  0.00    +0.000 OA
ATOM    438  H   A   B  57       8.241 -22.614  36.541  0.00  0.00    +0.000 HD
ENDBRANCH 435 437
BRANCH 435 439
ATOM    439  O5' A   B  57       9.740 -22.034  34.458  0.00  0.00    +0.000 OA
BRANCH 439 440
ATOM    440  C5' A   B  57       9.096 -23.255  34.139  0.00  0.00    +0.000 C 
BRANCH 440 441
ATOM    441  C4' A   B  57       9.782 -23.945  32.983  0.00  0.00    +0.000 C 
ATOM    442  O4' A   B  57       9.700 -23.102  31.799  0.00  0.00    +0.000 OA
ATOM    443  C3' A   B  57      11.266 -24.200  33.155  0.00  0.00    +0.000 C 
ATOM    444  C2' A   B  57      11.740 -24.315  31.707  0.00  0.00    +0.000 C 
ATOM    445  C1' A   B  57      10.859 -23.273  31.008  0.00  0.00    +0.000 C 
BRANCH 445 446
ATOM    446  N9  A   B  57      11.527 -21.972  30.863  0.00  0.00    +0.000 N 
ATOM    447  C8  A   B  57      11.522 -20.914  31.735  0.00  0.00    +0.000 A 
ATOM    448  N7  A   B  57      12.220 -19.882  31.319  0.00  0.00    +0.000 NA
ATOM    449  C5  A   B  57      12.720 -20.292  30.086  0.00  0.00    +0.000 A 
ATOM    450  C6  A   B  57      13.536 -19.655  29.134  0.00  0.00    +0.000 A 
ATOM    451  N1  A   B  57      13.849 -20.337  28.014  0.00  0.00    +0.000 NA
ATOM    452  C2  A   B  57      13.369 -21.578  27.862  0.00  0.00    +0.000 A 
ATOM    453  N3  A   B  57      12.594 -22.284  28.685  0.00  0.00    +0.000 NA
ATOM    454  C4  A   B  57      12.301 -21.573  29.794  0.00  0.00    +0.000 A 
BRANCH 450 455
ATOM    455  N6  A   B  57      14.021 -18.412  29.287  0.00  0.00    +0.000 N 
ATOM    456  H   A   B  57      14.588 -18.015  28.587  0.00  0.00    +0.000 HD
ATOM    457  H   A   B  57      13.809 -17.898  30.099  0.00  0.00    +0.000 HD
ENDBRANCH 450 455
ENDBRANCH 445 446
BRANCH 444 458
ATOM    458  O2' A   B  57      11.476 -25.596  31.170  0.00  0.00    +0.000 OA
ATOM    459  H   A   B  57      10.528 -25.788  31.243  0.00  0.00    +0.000 HD
ENDBRANCH 444 458
BRANCH 443 460
ATOM    460  O3' A   B  57      11.529 -25.372  33.921  0.00  0.00    +0.000 OA
BRANCH 460 461
ATOM    461  P   C   B  58      12.205 -25.302  35.375  0.00  0.00    +0.000 P 
ATOM    462  OP2 C   B  58      13.450 -24.530  35.231  0.00  0.00    +0.000 OA
BRANCH 461 463
ATOM    463  OP1 C   B  58      11.157 -24.852  36.343  0.00  0.00    +0.000 OA
ATOM    464  H   C   B  58      10.909 -23.935  36.148  0.00  0.00    +0.000 HD
ENDBRANCH 461 463
BRANCH 461 465
ATOM    465  O5' C   B  58      12.594 -26.814  35.718  0.00  0.00    +0.000 OA
BRANCH 465 466
ATOM    466  C5' C   B  58      13.928 -27.293  35.588  0.00  0.00    +0.000 C 
BRANCH 466 467
ATOM    467  C4' C   B  58      13.989 -28.541  34.725  0.00  0.00    +0.000 C 
ATOM    468  O4' C   B  58      13.706 -29.718  35.540  0.00  0.00    +0.000 OA
ATOM    469  C3' C   B  58      13.004 -28.567  33.563  0.00  0.00    +0.000 C 
ATOM    470  C2' C   B  58      11.921 -29.529  34.039  0.00  0.00    +0.000 C 
ATOM    471  C1' C   B  58      12.713 -30.498  34.905  0.00  0.00    +0.000 C 
BRANCH 471 472
ATOM    472  N1  C   B  58      11.878 -31.165  35.922  0.00  0.00    +0.000 N 
ATOM    473  C2  C   B  58      11.555 -32.514  35.751  0.00  0.00    +0.000 A 
ATOM    474  O2  C   B  58      11.981 -33.123  34.756  0.00  0.00    +0.000 OA
ATOM    475  N3  C   B  58      10.770 -33.128  36.677  0.00  0.00    +0.000 NA
ATOM    476  C4  C   B  58      10.325 -32.443  37.732  0.00  0.00    +0.000 A 
ATOM    477  N4  C   B  58       9.566 -33.084  38.613  0.00  0.00    +0.000 N 
ATOM    478  C5  C   B  58      10.636 -31.066  37.924  0.00  0.00    +0.000 A 
ATOM    479  C6  C   B  58      11.406 -30.472  36.999  0.00  0.00    +0.000 A 
ATOM    480  H   C   B  58       9.352 -34.036  38.478  0.00  0.00    +0.000 HD
ATOM    481  H   C   B  58       9.217 -32.608  39.401  0.00  0.00    +0.000 HD
ENDBRANCH 471 472
BRANCH 470 482
ATOM    482  O2' C   B  58      11.243 -30.199  33.005  0.00  0.00    +0.000 OA
ATOM    483  H   C   B  58      11.880 -30.703  32.474  0.00  0.00    +0.000 HD
ENDBRANCH 470 482
BRANCH 469 484
ATOM    484  O3' C   B  58      13.621 -29.087  32.398  0.00  0.00    +0.000 OA
BRANCH 484 485
ATOM    485  P   A   B  59      13.016 -28.507  31.092  0.00  0.00    +0.000 P 
ATOM    486  OP2 A   B  59      12.045 -29.452  30.518  0.00  0.00    +0.000 OA
BRANCH 485 487
ATOM    487  OP1 A   B  59      12.655 -27.114  31.385  0.00  0.00    +0.000 OA
ATOM    488  H   A   B  59      12.270 -26.706  30.593  0.00  0.00    +0.000 HD
ENDBRANCH 485 487
BRANCH 485 489
ATOM    489  O5' A   B  59      14.252 -28.467  30.104  0.00  0.00    +0.000 OA
BRANCH 489 490
ATOM    490  C5' A   B  59      15.285 -27.588  30.393  0.00  0.00    +0.000 C 
BRANCH 490 491
ATOM    491  C4' A   B  59      15.976 -27.122  29.135  0.00  0.00    +0.000 C 
ATOM    492  O4' A   B  59      15.256 -25.993  28.580  0.00  0.00    +0.000 OA
ATOM    493  C3' A   B  59      17.387 -26.602  29.357  0.00  0.00    +0.000 C 
ATOM    494  C2' A   B  59      17.569 -25.659  28.174  0.00  0.00    +0.000 C 
ATOM    495  C1' A   B  59      16.174 -25.043  28.068  0.00  0.00    +0.000 C 
BRANCH 495 496
ATOM    496  N9  A   B  59      16.042 -23.805  28.852  0.00  0.00    +0.000 N 
ATOM    497  C8  A   B  59      15.305 -23.608  29.988  0.00  0.00    +0.000 A 
ATOM    498  N7  A   B  59      15.381 -22.381  30.463  0.00  0.00    +0.000 NA
ATOM    499  C5  A   B  59      16.224 -21.734  29.573  0.00  0.00    +0.000 A 
ATOM    500  C6  A   B  59      16.707 -20.418  29.519  0.00  0.00    +0.000 A 
ATOM    501  N6  A   B  59      16.394 -19.469  30.423  0.00  0.00    +0.000 N 
ATOM    502  N1  A   B  59      17.539 -20.091  28.504  0.00  0.00    +0.000 NA
ATOM    503  C2  A   B  59      17.855 -21.033  27.608  0.00  0.00    +0.000 A 
ATOM    504  N3  A   B  59      17.464 -22.307  27.551  0.00  0.00    +0.000 NA
ATOM    505  C4  A   B  59      16.640 -22.596  28.578  0.00  0.00    +0.000 A 
ATOM    506  H   A   B  59      16.765 -18.561  30.332  0.00  0.00    +0.000 HD
ATOM    507  H   A   B  59      15.795 -19.683  31.174  0.00  0.00    +0.000 HD
ENDBRANCH 495 496
BRANCH 494 508
ATOM    508  O2' A   B  59      17.864 -26.360  26.984  0.00  0.00    +0.000 OA
ATOM    509  H   A   B  59      17.165 -27.010  26.810  0.00  0.00    +0.000 HD
ENDBRANCH 494 508
BRANCH 493 510
ATOM    510  O3' A   B  59      18.324 -27.667  29.395  0.00  0.00    +0.000 OA
BRANCH 510 511
ATOM    511  P   G   B  60      19.474 -27.703  30.513  0.00  0.00    +0.000 P 
ATOM    512  OP1 G   B  60      20.091 -29.054  30.502  0.00  0.00    +0.000 OA
BRANCH 511 513
ATOM    513  OP2 G   B  60      18.966 -27.149  31.793  0.00  0.00    +0.000 OA
ATOM    514  H   G   B  60      18.595 -26.266  31.639  0.00  0.00    +0.000 HD
ENDBRANCH 511 513
BRANCH 511 515
ATOM    515  O5' G   B  60      20.511 -26.673  29.892  0.00  0.00    +0.000 OA
BRANCH 515 516
ATOM    516  C5' G   B  60      21.005 -26.860  28.580  0.00  0.00    +0.000 C 
BRANCH 516 517
ATOM    517  C4' G   B  60      21.697 -25.620  28.068  0.00  0.00    +0.000 C 
ATOM    518  O4' G   B  60      20.755 -24.521  28.016  0.00  0.00    +0.000 OA
ATOM    519  C3' G   B  60      22.825 -25.085  28.924  0.00  0.00    +0.000 C 
ATOM    520  C2' G   B  60      22.913 -23.633  28.466  0.00  0.00    +0.000 C 
ATOM    521  C1' G   B  60      21.452 -23.302  28.149  0.00  0.00    +0.000 C 
BRANCH 521 522
ATOM    522  N9  G   B  60      20.817 -22.477  29.188  0.00  0.00    +0.000 N 
ATOM    523  C8  G   B  60      20.022 -22.873  30.229  0.00  0.00    +0.000 A 
ATOM    524  N7  G   B  60      19.617 -21.877  30.973  0.00  0.00    +0.000 NA
ATOM    525  C5  G   B  60      20.181 -20.755  30.380  0.00  0.00    +0.000 A 
ATOM    526  C6  G   B  60      20.105 -19.385  30.735  0.00  0.00    +0.000 A 
ATOM    527  O6  G   B  60      19.498 -18.863  31.685  0.00  0.00    +0.000 OA
ATOM    528  N1  G   B  60      20.832 -18.587  29.858  0.00  0.00    +0.000 NA
ATOM    529  C2  G   B  60      21.540 -19.046  28.775  0.00  0.00    +0.000 A 
ATOM    530  N2  G   B  60      22.179 -18.127  28.041  0.00  0.00    +0.000 N 
ATOM    531  N3  G   B  60      21.621 -20.317  28.434  0.00  0.00    +0.000 N 
ATOM    532  C4  G   B  60      20.921 -21.112  29.277  0.00  0.00    +0.000 A 
ATOM    533  H   G   B  60      22.701 -18.402  27.253  0.00  0.00    +0.000 HD
ATOM    534  H   G   B  60      22.127 -17.176  28.289  0.00  0.00    +0.000 HD
ATOM    535  H   G   B  60      22.130 -20.648  27.659  0.00  0.00    +0.000 HD
ENDBRANCH 521 522
BRANCH 520 536
ATOM    536  O2' G   B  60      23.689 -23.508  27.283  0.00  0.00    +0.000 OA
ATOM    537  H   G   B  60      23.312 -24.070  26.588  0.00  0.00    +0.000 HD
ENDBRANCH 520 536
BRANCH 519 538
ATOM    538  O3' G   B  60      24.039 -25.798  28.710  0.00  0.00    +0.000 OA
BRANCH 538 539
ATOM    539  P   A   B  61      24.755 -26.667  29.875  0.00  0.00    +0.000 P 
ATOM    540  OP2 A   B  61      25.979 -25.927  30.302  0.00  0.00    +0.000 OA
BRANCH 539 541
ATOM    541  OP1 A   B  61      23.752 -27.058  30.888  0.00  0.00    +0.000 OA
ATOM    542  H   A   B  61      23.022 -27.528  30.455  0.00  0.00    +0.000 HD
ENDBRANCH 539 541
BRANCH 539 543
ATOM    543  O5' A   B  61      25.226 -27.971  29.090  0.00  0.00    +0.000 OA
BRANCH 543 544
ATOM    544  C5' A   B  61      24.281 -28.946  28.670  0.00  0.00    +0.000 C 
BRANCH 544 545
ATOM    545  C4' A   B  61      24.462 -29.302  27.210  0.00  0.00    +0.000 C 
ATOM    546  O4' A   B  61      24.023 -28.196  26.373  0.00  0.00    +0.000 OA
ATOM    547  C3' A   B  61      25.892 -29.554  26.756  0.00  0.00    +0.000 C 
ATOM    548  C2' A   B  61      25.793 -29.312  25.255  0.00  0.00    +0.000 C 
ATOM    549  C1' A   B  61      24.843 -28.116  25.214  0.00  0.00    +0.000 C 
BRANCH 549 550
ATOM    550  N9  A   B  61      25.572 -26.840  25.236  0.00  0.00    +0.000 N 
ATOM    551  C8  A   B  61      25.731 -25.993  26.301  0.00  0.00    +0.000 A 
ATOM    552  N7  A   B  61      26.442 -24.921  26.026  0.00  0.00    +0.000 NA
ATOM    553  C5  A   B  61      26.776 -25.082  24.684  0.00  0.00    +0.000 A 
ATOM    554  C6  A   B  61      27.525 -24.289  23.797  0.00  0.00    +0.000 A 
ATOM    555  N1  A   B  61      27.670 -24.731  22.529  0.00  0.00    +0.000 NA
ATOM    556  C2  A   B  61      27.097 -25.896  22.186  0.00  0.00    +0.000 A 
ATOM    557  N3  A   B  61      26.372 -26.728  22.930  0.00  0.00    +0.000 NA
ATOM    558  C4  A   B  61      26.247 -26.254  24.186  0.00  0.00    +0.000 A 
BRANCH 554 559
ATOM    559  N6  A   B  61      28.101 -23.133  24.147  0.00  0.00    +0.000 N 
ATOM    560  H   A   B  61      28.615 -22.618  23.483  0.00  0.00    +0.000 HD
ATOM    561  H   A   B  61      28.011 -22.797  25.068  0.00  0.00    +0.000 HD
ENDBRANCH 554 559
ENDBRANCH 549 550
BRANCH 548 562
ATOM    562  O2' A   B  61      25.204 -30.402  24.581  0.00  0.00    +0.000 OA
ATOM    563  H   A   B  61      24.331 -30.585  24.963  0.00  0.00    +0.000 HD
ENDBRANCH 548 562
BRANCH 547 564
ATOM    564  O3' A   B  61      26.364 -30.853  27.090  0.00  0.00    +0.000 OA
BRANCH 564 565
ATOM    565  P   C   B  62      27.910 -31.134  27.339  0.00  0.00    +0.000 P 
ATOM    566  OP1 C   B  62      28.055 -32.464  27.978  0.00  0.00    +0.000 OA
BRANCH 565 567
ATOM    567  OP2 C   B  62      28.499 -29.937  27.996  0.00  0.00    +0.000 OA
ATOM    568  H   C   B  62      28.319 -29.151  27.457  0.00  0.00    +0.000 HD
ENDBRANCH 565 567
BRANCH 565 569
ATOM    569  O5' C   B  62      28.505 -31.230  25.863  0.00  0.00    +0.000 OA
BRANCH 569 570
ATOM    570  C5' C   B  62      28.086 -32.257  24.965  0.00  0.00    +0.000 C 
BRANCH 570 571
ATOM    571  C4' C   B  62      28.561 -31.990  23.560  0.00  0.00    +0.000 C 
ATOM    572  O4' C   B  62      28.041 -30.715  23.087  0.00  0.00    +0.000 OA
ATOM    573  C3' C   B  62      30.056 -31.850  23.376  0.00  0.00    +0.000 C 
ATOM    574  C2' C   B  62      30.135 -31.097  22.049  0.00  0.00    +0.000 C 
ATOM    575  C1' C   B  62      28.971 -30.120  22.197  0.00  0.00    +0.000 C 
BRANCH 575 576
ATOM    576  N1  C   B  62      29.422 -28.821  22.750  0.00  0.00    +0.000 N 
ATOM    577  C2  C   B  62      30.048 -27.910  21.889  0.00  0.00    +0.000 A 
ATOM    578  O2  C   B  62      30.201 -28.213  20.694  0.00  0.00    +0.000 OA
ATOM    579  N3  C   B  62      30.473 -26.719  22.384  0.00  0.00    +0.000 NA
ATOM    580  C4  C   B  62      30.295 -26.423  23.674  0.00  0.00    +0.000 A 
ATOM    581  N4  C   B  62      30.733 -25.242  24.113  0.00  0.00    +0.000 N 
ATOM    582  C5  C   B  62      29.663 -27.330  24.567  0.00  0.00    +0.000 A 
ATOM    583  C6  C   B  62      29.245 -28.506  24.070  0.00  0.00    +0.000 A 
ATOM    584  H   C   B  62      31.170 -24.617  23.491  0.00  0.00    +0.000 HD
ATOM    585  H   C   B  62      30.619 -24.996  25.059  0.00  0.00    +0.000 HD
ENDBRANCH 575 576
BRANCH 574 586
ATOM    586  O2' C   B  62      29.891 -31.943  20.945  0.00  0.00    +0.000 OA
ATOM    587  H   C   B  62      29.028 -32.373  21.052  0.00  0.00    +0.000 HD
ENDBRANCH 574 586
BRANCH 573 588
ATOM    588  O3' C   B  62      30.738 -33.097  23.355  0.00  0.00    +0.000 OA
BRANCH 588 589
ATOM    589  P   U   B  63      32.176 -33.234  24.034  0.00  0.00    +0.000 P 
ATOM    590  OP1 U   B  63      32.661 -34.614  23.792  0.00  0.00    +0.000 OA
BRANCH 589 591
ATOM    591  OP2 U   B  63      32.095 -32.716  25.423  0.00  0.00    +0.000 OA
ATOM    592  H   U   B  63      31.761 -31.805  25.410  0.00  0.00    +0.000 HD
ENDBRANCH 589 591
BRANCH 589 593
ATOM    593  O5' U   B  63      33.080 -32.226  23.185  0.00  0.00    +0.000 OA
BRANCH 593 594
ATOM    594  C5' U   B  63      33.334 -32.445  21.804  0.00  0.00    +0.000 C 
BRANCH 594 595
ATOM    595  C4' U   B  63      34.006 -31.249  21.167  0.00  0.00    +0.000 C 
ATOM    596  O4' U   B  63      33.200 -30.055  21.362  0.00  0.00    +0.000 OA
ATOM    597  C3' U   B  63      35.352 -30.865  21.734  0.00  0.00    +0.000 C 
ATOM    598  C2' U   B  63      35.477 -29.408  21.294  0.00  0.00    +0.000 C 
ATOM    599  C1' U   B  63      34.039 -28.922  21.477  0.00  0.00    +0.000 C 
BRANCH 599 600
ATOM    600  N1  U   B  63      33.834 -28.289  22.801  0.00  0.00    +0.000 N 
ATOM    601  C2  U   B  63      34.309 -26.999  22.982  0.00  0.00    +0.000 A 
ATOM    602  O2  U   B  63      34.881 -26.375  22.104  0.00  0.00    +0.000 OA
ATOM    603  N3  U   B  63      34.095 -26.467  24.230  0.00  0.00    +0.000 N 
ATOM    604  C4  U   B  63      33.465 -27.076  25.295  0.00  0.00    +0.000 A 
ATOM    605  O4  U   B  63      33.351 -26.468  26.359  0.00  0.00    +0.000 OA
ATOM    606  C5  U   B  63      33.002 -28.401  25.029  0.00  0.00    +0.000 A 
ATOM    607  C6  U   B  63      33.196 -28.949  23.821  0.00  0.00    +0.000 A 
ATOM    608  H   U   B  63      34.427 -25.552  24.381  0.00  0.00    +0.000 HD
ENDBRANCH 599 600
BRANCH 598 609
ATOM    609  O2' U   B  63      35.835 -29.297  19.934  0.00  0.00    +0.000 OA
ATOM    610  H   U   B  63      35.188 -29.773  19.390  0.00  0.00    +0.000 HD
ENDBRANCH 598 609
BRANCH 597 611
ATOM    611  O3' U   B  63      36.403 -31.691  21.249  0.00  0.00    +0.000 OA
BRANCH 611 612
ATOM    612  P   A   B  64      37.671 -32.003  22.174  0.00  0.00    +0.000 P 
ATOM    613  OP1 A   B  64      38.484 -33.040  21.487  0.00  0.00    +0.000 OA
BRANCH 612 614
ATOM    614  OP2 A   B  64      37.211 -32.233  23.571  0.00  0.00    +0.000 OA
ATOM    615  H   A   B  64      36.714 -33.065  23.615  0.00  0.00    +0.000 HD
ENDBRANCH 612 614
BRANCH 612 616
ATOM    616  O5' A   B  64      38.481 -30.630  22.145  0.00  0.00    +0.000 OA
BRANCH 616 617
ATOM    617  C5' A   B  64      39.016 -30.125  20.927  0.00  0.00    +0.000 C 
BRANCH 617 618
ATOM    618  C4' A   B  64      39.636 -28.764  21.133  0.00  0.00    +0.000 C 
ATOM    619  O4' A   B  64      38.611 -27.805  21.490  0.00  0.00    +0.000 OA
ATOM    620  C3' A   B  64      40.637 -28.666  22.268  0.00  0.00    +0.000 C 
ATOM    621  C2' A   B  64      40.617 -27.180  22.590  0.00  0.00    +0.000 C 
ATOM    622  C1' A   B  64      39.137 -26.858  22.405  0.00  0.00    +0.000 C 
BRANCH 622 623
ATOM    623  N9  A   B  64      38.384 -26.951  23.663  0.00  0.00    +0.000 N 
ATOM    624  C8  A   B  64      37.540 -27.952  24.064  0.00  0.00    +0.000 A 
ATOM    625  N7  A   B  64      37.007 -27.753  25.246  0.00  0.00    +0.000 NA
ATOM    626  C5  A   B  64      37.536 -26.536  25.649  0.00  0.00    +0.000 A 
ATOM    627  C6  A   B  64      37.364 -25.770  26.812  0.00  0.00    +0.000 A 
ATOM    628  N6  A   B  64      36.577 -26.137  27.830  0.00  0.00    +0.000 N 
ATOM    629  N1  A   B  64      38.037 -24.606  26.903  0.00  0.00    +0.000 NA
ATOM    630  C2  A   B  64      38.825 -24.241  25.886  0.00  0.00    +0.000 A 
ATOM    631  N3  A   B  64      39.070 -24.874  24.743  0.00  0.00    +0.000 NA
ATOM    632  C4  A   B  64      38.385 -26.031  24.687  0.00  0.00    +0.000 A 
ATOM    633  H   A   B  64      36.076 -26.983  27.785  0.00  0.00    +0.000 HD
ATOM    634  H   A   B  64      36.499 -25.561  28.624  0.00  0.00    +0.000 HD
ENDBRANCH 622 623
BRANCH 621 635
ATOM    635  O2' A   B  64      41.377 -26.432  21.662  0.00  0.00    +0.000 OA
ATOM    636  H   A   B  64      41.050 -26.602  20.765  0.00  0.00    +0.000 HD
ENDBRANCH 621 635
BRANCH 620 637
ATOM    637  O3' A   B  64      41.918 -29.151  21.890  0.00  0.00    +0.000 OA
BRANCH 637 638
ATOM    638  P   C   B  65      42.842 -29.912  22.958  0.00  0.00    +0.000 P 
ATOM    639  OP1 C   B  65      43.916 -30.616  22.212  0.00  0.00    +0.000 OA
BRANCH 638 640
ATOM    640  OP2 C   B  65      41.974 -30.678  23.893  0.00  0.00    +0.000 OA
ATOM    641  H   C   B  65      41.563 -31.418  23.420  0.00  0.00    +0.000 HD
ENDBRANCH 638 640
BRANCH 638 642
ATOM    642  O5' C   B  65      43.499 -28.707  23.768  0.00  0.00    +0.000 OA
BRANCH 642 643
ATOM    643  C5' C   B  65      44.310 -27.739  23.112  0.00  0.00    +0.000 C 
BRANCH 643 644
ATOM    644  C4' C   B  65      44.634 -26.590  24.035  0.00  0.00    +0.000 C 
ATOM    645  O4' C   B  65      43.424 -25.858  24.361  0.00  0.00    +0.000 OA
ATOM    646  C3' C   B  65      45.200 -26.973  25.383  0.00  0.00    +0.000 C 
ATOM    647  C2' C   B  65      44.892 -25.734  26.217  0.00  0.00    +0.000 C 
ATOM    648  C1' C   B  65      43.512 -25.355  25.682  0.00  0.00    +0.000 C 
BRANCH 648 649
ATOM    649  N1  C   B  65      42.412 -25.935  26.487  0.00  0.00    +0.000 N 
ATOM    650  C2  C   B  65      42.012 -25.274  27.655  0.00  0.00    +0.000 A 
ATOM    651  O2  C   B  65      42.584 -24.223  27.980  0.00  0.00    +0.000 OA
ATOM    652  N3  C   B  65      41.007 -25.803  28.400  0.00  0.00    +0.000 NA
ATOM    653  C4  C   B  65      40.410 -26.933  28.022  0.00  0.00    +0.000 A 
ATOM    654  N4  C   B  65      39.431 -27.411  28.788  0.00  0.00    +0.000 N 
ATOM    655  C5  C   B  65      40.799 -27.620  26.843  0.00  0.00    +0.000 A 
ATOM    656  C6  C   B  65      41.793 -27.093  26.112  0.00  0.00    +0.000 A 
ATOM    657  H   C   B  65      38.970 -28.244  28.536  0.00  0.00    +0.000 HD
ATOM    658  H   C   B  65      39.168 -26.932  29.607  0.00  0.00    +0.000 HD
ENDBRANCH 648 649
BRANCH 647 659
ATOM    659  O2' C   B  65      45.797 -24.686  25.956  0.00  0.00    +0.000 OA
ATOM    660  H   C   B  65      45.789 -24.481  25.008  0.00  0.00    +0.000 HD
ENDBRANCH 647 659
BRANCH 646 661
ATOM    661  O3' C   B  65      46.586 -27.290  25.320  0.00  0.00    +0.000 OA
BRANCH 661 662
ATOM    662  P   A   B  66      47.203 -28.482  26.250  0.00  0.00    +0.000 P 
ATOM    663  OP1 A   B  66      48.527 -28.870  25.696  0.00  0.00    +0.000 OA
BRANCH 662 664
ATOM    664  OP2 A   B  66      46.156 -29.525  26.451  0.00  0.00    +0.000 OA
ATOM    665  H   A   B  66      45.996 -29.988  25.614  0.00  0.00    +0.000 HD
ENDBRANCH 662 664
BRANCH 662 666
ATOM    666  O5' A   B  66      47.436 -27.747  27.646  0.00  0.00    +0.000 OA
BRANCH 666 667
ATOM    667  C5' A   B  66      48.393 -26.699  27.769  0.00  0.00    +0.000 C 
BRANCH 667 668
ATOM    668  C4' A   B  66      48.241 -25.978  29.083  0.00  0.00    +0.000 C 
ATOM    669  O4' A   B  66      46.948 -25.323  29.135  0.00  0.00    +0.000 OA
ATOM    670  C3' A   B  66      48.253 -26.845  30.325  0.00  0.00    +0.000 C 
ATOM    671  C2' A   B  66      47.549 -25.949  31.335  0.00  0.00    +0.000 C 
ATOM    672  C1' A   B  66      46.462 -25.333  30.466  0.00  0.00    +0.000 C 
BRANCH 672 673
ATOM    673  N9  A   B  66      45.219 -26.117  30.505  0.00  0.00    +0.000 N 
ATOM    674  C8  A   B  66      44.768 -27.032  29.589  0.00  0.00    +0.000 A 
ATOM    675  N7  A   B  66      43.618 -27.578  29.909  0.00  0.00    +0.000 NA
ATOM    676  C5  A   B  66      43.294 -26.982  31.121  0.00  0.00    +0.000 A 
ATOM    677  C6  A   B  66      42.197 -27.133  31.983  0.00  0.00    +0.000 A 
ATOM    678  N6  A   B  66      41.184 -27.970  31.750  0.00  0.00    +0.000 N 
ATOM    679  N1  A   B  66      42.180 -26.393  33.110  0.00  0.00    +0.000 NA
ATOM    680  C2  A   B  66      43.203 -25.559  33.346  0.00  0.00    +0.000 A 
ATOM    681  N3  A   B  66      44.288 -25.329  32.613  0.00  0.00    +0.000 NA
ATOM    682  C4  A   B  66      44.270 -26.086  31.498  0.00  0.00    +0.000 A 
ATOM    683  H   A   B  66      41.177 -28.519  30.933  0.00  0.00    +0.000 HD
ATOM    684  H   A   B  66      40.443 -28.038  32.395  0.00  0.00    +0.000 HD
ENDBRANCH 672 673
BRANCH 671 685
ATOM    685  O2' A   B  66      48.401 -24.932  31.819  0.00  0.00    +0.000 OA
ATOM    686  H   A   B  66      48.747 -24.418  31.073  0.00  0.00    +0.000 HD
ENDBRANCH 671 685
BRANCH 670 687
ATOM    687  O3' A   B  66      49.565 -27.232  30.718  0.00  0.00    +0.000 OA
BRANCH 687 688
ATOM    688  P   A   B  67      49.790 -28.702  31.389  0.00  0.00    +0.000 P 
ATOM    689  OP2 A   B  67      49.040 -29.722  30.609  0.00  0.00    +0.000 OA
BRANCH 688 690
ATOM    690  OP1 A   B  67      51.251 -28.862  31.593  0.00  0.00    +0.000 OA
ATOM    691  H   A   B  67      51.691 -28.945  30.732  0.00  0.00    +0.000 HD
ENDBRANCH 688 690
BRANCH 688 692
ATOM    692  O5' A   B  67      49.089 -28.568  32.814  0.00  0.00    +0.000 OA
BRANCH 692 693
ATOM    693  C5' A   B  67      49.597 -27.660  33.788  0.00  0.00    +0.000 C 
BRANCH 693 694
ATOM    694  C4' A   B  67      48.683 -27.576  34.985  0.00  0.00    +0.000 C 
ATOM    695  O4' A   B  67      47.382 -27.074  34.582  0.00  0.00    +0.000 OA
ATOM    696  C3' A   B  67      48.359 -28.884  35.671  0.00  0.00    +0.000 C 
ATOM    697  C2' A   B  67      47.088 -28.524  36.428  0.00  0.00    +0.000 C 
ATOM    698  C1' A   B  67      46.378 -27.645  35.404  0.00  0.00    +0.000 C 
BRANCH 698 699
ATOM    699  N9  A   B  67      45.454 -28.424  34.565  0.00  0.00    +0.000 N 
ATOM    700  C8  A   B  67      45.647 -28.879  33.289  0.00  0.00    +0.000 A 
ATOM    701  N7  A   B  67      44.630 -29.561  32.813  0.00  0.00    +0.000 NA
ATOM    702  C5  A   B  67      43.706 -29.558  33.851  0.00  0.00    +0.000 A 
ATOM    703  C6  A   B  67      42.421 -30.112  33.979  0.00  0.00    +0.000 A 
ATOM    704  N1  A   B  67      41.773 -29.924  35.145  0.00  0.00    +0.000 NA
ATOM    705  C2  A   B  67      42.382 -29.223  36.111  0.00  0.00    +0.000 A 
ATOM    706  N3  A   B  67      43.581 -28.655  36.109  0.00  0.00    +0.000 NA
ATOM    707  C4  A   B  67      44.202 -28.864  34.931  0.00  0.00    +0.000 A 
BRANCH 703 708
ATOM    708  N6  A   B  67      41.817 -30.817  33.018  0.00  0.00    +0.000 N 
ATOM    709  H   A   B  67      42.272 -30.967  32.158  0.00  0.00    +0.000 HD
ATOM    710  H   A   B  67      40.917 -31.186  33.170  0.00  0.00    +0.000 HD
ENDBRANCH 703 708
ENDBRANCH 698 699
BRANCH 697 711
ATOM    711  O2' A   B  67      47.365 -27.766  37.586  0.00  0.00    +0.000 OA
ATOM    712  H   A   B  67      47.866 -26.973  37.341  0.00  0.00    +0.000 HD
ENDBRANCH 697 711
BRANCH 696 713
ATOM    713  O3' A   B  67      49.411 -29.348  36.506  0.00  0.00    +0.000 OA
BRANCH 713 714
ATOM    714  P   A   B  68      49.599 -30.955  36.743  0.00  0.00    +0.000 P 
ATOM    715  OP2 A   B  68      49.280 -31.680  35.484  0.00  0.00    +0.000 OA
BRANCH 714 716
ATOM    716  OP1 A   B  68      50.921 -31.151  37.389  0.00  0.00    +0.000 OA
ATOM    717  H   A   B  68      51.625 -30.941  36.755  0.00  0.00    +0.000 HD
ENDBRANCH 714 716
BRANCH 714 718
ATOM    718  O5' A   B  68      48.461 -31.306  37.804  0.00  0.00    +0.000 OA
BRANCH 718 719
ATOM    719  C5' A   B  68      48.487 -30.732  39.105  0.00  0.00    +0.000 C 
BRANCH 719 720
ATOM    720  C4' A   B  68      47.177 -30.944  39.822  0.00  0.00    +0.000 C 
ATOM    721  O4' A   B  68      46.088 -30.386  39.044  0.00  0.00    +0.000 OA
ATOM    722  C3' A   B  68      46.756 -32.383  40.034  0.00  0.00    +0.000 C 
ATOM    723  C2' A   B  68      45.257 -32.237  40.258  0.00  0.00    +0.000 C 
ATOM    724  C1' A   B  68      44.914 -31.152  39.245  0.00  0.00    +0.000 C 
BRANCH 724 725
ATOM    725  N9  A   B  68      44.486 -31.723  37.961  0.00  0.00    +0.000 N 
ATOM    726  C8  A   B  68      45.197 -31.816  36.790  0.00  0.00    +0.000 A 
ATOM    727  N7  A   B  68      44.534 -32.392  35.815  0.00  0.00    +0.000 NA
ATOM    728  C5  A   B  68      43.301 -32.701  36.384  0.00  0.00    +0.000 A 
ATOM    729  C6  A   B  68      42.150 -33.324  35.872  0.00  0.00    +0.000 A 
ATOM    730  N1  A   B  68      41.100 -33.478  36.704  0.00  0.00    +0.000 NA
ATOM    731  C2  A   B  68      41.207 -33.030  37.961  0.00  0.00    +0.000 A 
ATOM    732  N3  A   B  68      42.231 -32.431  38.555  0.00  0.00    +0.000 NA
ATOM    733  C4  A   B  68      43.262 -32.296  37.698  0.00  0.00    +0.000 A 
BRANCH 729 734
ATOM    734  N6  A   B  68      42.047 -33.776  34.619  0.00  0.00    +0.000 N 
ATOM    735  H   A   B  68      42.802 -33.674  33.995  0.00  0.00    +0.000 HD
ATOM    736  H   A   B  68      41.216 -34.211  34.319  0.00  0.00    +0.000 HD
ENDBRANCH 729 734
ENDBRANCH 724 725
BRANCH 723 737
ATOM    737  O2' A   B  68      44.965 -31.771  41.560  0.00  0.00    +0.000 OA
ATOM    738  H   A   B  68      45.428 -30.933  41.715  0.00  0.00    +0.000 HD
ENDBRANCH 723 737
BRANCH 722 739
ATOM    739  O3' A   B  68      47.431 -33.003  41.121  0.00  0.00    +0.000 OA
BRANCH 739 740
ATOM    740  P   A   B  69      47.662 -34.619  41.116  0.00  0.00    +0.000 P 
ATOM    741  OP2 A   B  69      48.016 -35.059  39.740  0.00  0.00    +0.000 OA
BRANCH 740 742
ATOM    742  OP1 A   B  69      48.566 -34.938  42.247  0.00  0.00    +0.000 OA
ATOM    743  H   A   B  69      49.452 -34.590  42.061  0.00  0.00    +0.000 HD
ENDBRANCH 740 742
BRANCH 740 744
ATOM    744  O5' A   B  69      46.215 -35.203  41.449  0.00  0.00    +0.000 OA
BRANCH 744 745
ATOM    745  C5' A   B  69      45.580 -34.905  42.688  0.00  0.00    +0.000 C 
BRANCH 745 746
ATOM    746  C4' A   B  69      44.140 -35.362  42.685  0.00  0.00    +0.000 C 
ATOM    747  O4' A   B  69      43.424 -34.742  41.591  0.00  0.00    +0.000 OA
ATOM    748  C3' A   B  69      43.920 -36.844  42.463  0.00  0.00    +0.000 C 
ATOM    749  C2' A   B  69      42.481 -36.880  41.966  0.00  0.00    +0.000 C 
ATOM    750  C1' A   B  69      42.435 -35.626  41.099  0.00  0.00    +0.000 C 
BRANCH 750 751
ATOM    751  N9  A   B  69      42.713 -35.918  39.686  0.00  0.00    +0.000 N 
ATOM    752  C8  A   B  69      43.858 -35.654  38.976  0.00  0.00    +0.000 A 
ATOM    753  N7  A   B  69      43.802 -36.040  37.720  0.00  0.00    +0.000 NA
ATOM    754  C5  A   B  69      42.532 -36.596  37.599  0.00  0.00    +0.000 A 
ATOM    755  C6  A   B  69      41.857 -37.185  36.515  0.00  0.00    +0.000 A 
ATOM    756  N1  A   B  69      40.608 -37.638  36.729  0.00  0.00    +0.000 NA
ATOM    757  C2  A   B  69      40.075 -37.499  37.950  0.00  0.00    +0.000 A 
ATOM    758  N3  A   B  69      40.607 -36.965  39.042  0.00  0.00    +0.000 NA
ATOM    759  C4  A   B  69      41.856 -36.527  38.795  0.00  0.00    +0.000 A 
BRANCH 755 760
ATOM    760  N6  A   B  69      42.389 -37.327  35.296  0.00  0.00    +0.000 N 
ATOM    761  H   A   B  69      41.866 -37.748  34.576  0.00  0.00    +0.000 HD
ATOM    762  H   A   B  69      43.304 -37.010  35.118  0.00  0.00    +0.000 HD
ENDBRANCH 755 760
ENDBRANCH 750 751
BRANCH 749 763
ATOM    763  O2' A   B  69      41.555 -36.751  43.029  0.00  0.00    +0.000 OA
ATOM    764  H   A   B  69      41.737 -35.934  43.519  0.00  0.00    +0.000 HD
ENDBRANCH 749 763
BRANCH 748 765
ATOM    765  O3' A   B  69      44.128 -37.606  43.647  0.00  0.00    +0.000 OA
BRANCH 765 766
ATOM    766  P   A   B  70      44.700 -39.117  43.556  0.00  0.00    +0.000 P 
ATOM    767  OP2 A   B  70      45.729 -39.182  42.483  0.00  0.00    +0.000 OA
BRANCH 766 768
ATOM    768  OP1 A   B  70      45.046 -39.542  44.933  0.00  0.00    +0.000 OA
ATOM    769  H   A   B  70      45.393 -40.447  44.914  0.00  0.00    +0.000 HD
ENDBRANCH 766 768
BRANCH 766 770
ATOM    770  O5' A   B  70      43.442 -39.964  43.071  0.00  0.00    +0.000 OA
BRANCH 770 771
ATOM    771  C5' A   B  70      42.265 -40.047  43.870  0.00  0.00    +0.000 C 
BRANCH 771 772
ATOM    772  C4' A   B  70      41.130 -40.671  43.099  0.00  0.00    +0.000 C 
ATOM    773  O4' A   B  70      40.817 -39.859  41.943  0.00  0.00    +0.000 OA
ATOM    774  C3' A   B  70      41.416 -42.041  42.515  0.00  0.00    +0.000 C 
ATOM    775  C2' A   B  70      40.406 -42.120  41.378  0.00  0.00    +0.000 C 
ATOM    776  C1' A   B  70      40.432 -40.687  40.861  0.00  0.00    +0.000 C 
BRANCH 776 777
ATOM    777  N9  A   B  70      41.394 -40.508  39.766  0.00  0.00    +0.000 N 
ATOM    778  C8  A   B  70      42.648 -39.958  39.828  0.00  0.00    +0.000 A 
ATOM    779  N7  A   B  70      43.274 -39.937  38.674  0.00  0.00    +0.000 NA
ATOM    780  C5  A   B  70      42.366 -40.517  37.793  0.00  0.00    +0.000 A 
ATOM    781  C6  A   B  70      42.425 -40.785  36.414  0.00  0.00    +0.000 A 
ATOM    782  N1  A   B  70      41.357 -41.369  35.842  0.00  0.00    +0.000 NA
ATOM    783  C2  A   B  70      40.298 -41.658  36.609  0.00  0.00    +0.000 A 
ATOM    784  N3  A   B  70      40.122 -41.453  37.909  0.00  0.00    +0.000 NA
ATOM    785  C4  A   B  70      41.210 -40.872  38.449  0.00  0.00    +0.000 A 
BRANCH 781 786
ATOM    786  N6  A   B  70      43.487 -40.499  35.649  0.00  0.00    +0.000 N 
ATOM    787  H   A   B  70      43.472 -40.710  34.687  0.00  0.00    +0.000 HD
ATOM    788  H   A   B  70      44.282 -40.078  36.048  0.00  0.00    +0.000 HD
ENDBRANCH 781 786
ENDBRANCH 776 777
BRANCH 775 789
ATOM    789  O2' A   B  70      39.106 -42.426  41.849  0.00  0.00    +0.000 OA
ATOM    790  H   A   B  70      38.839 -41.769  42.511  0.00  0.00    +0.000 HD
ENDBRANCH 775 789
BRANCH 774 791
ATOM    791  O3' A   B  70      41.270 -43.079  43.477  0.00  0.00    +0.000 OA
BRANCH 791 792
ATOM    792  P   U   B  71      42.217 -44.394  43.437  0.00  0.00    +0.000 P 
ATOM    793  OP2 U   B  71      43.586 -43.983  43.025  0.00  0.00    +0.000 OA
BRANCH 792 794
ATOM    794  OP1 U   B  71      42.025 -45.141  44.706  0.00  0.00    +0.000 OA
ATOM    795  H   U   B  71      42.584 -45.934  44.702  0.00  0.00    +0.000 HD
ENDBRANCH 792 794
BRANCH 792 796
ATOM    796  O5' U   B  71      41.588 -45.252  42.251  0.00  0.00    +0.000 OA
BRANCH 796 797
ATOM    797  C5' U   B  71      40.257 -45.748  42.323  0.00  0.00    +0.000 C 
BRANCH 797 798
ATOM    798  C4' U   B  71      39.797 -46.282  40.989  0.00  0.00    +0.000 C 
ATOM    799  O4' U   B  71      39.792 -45.216  40.007  0.00  0.00    +0.000 OA
ATOM    800  C3' U   B  71      40.681 -47.340  40.371  0.00  0.00    +0.000 C 
ATOM    801  C2' U   B  71      40.301 -47.245  38.898  0.00  0.00    +0.000 C 
ATOM    802  C1' U   B  71      40.128 -45.737  38.734  0.00  0.00    +0.000 C 
BRANCH 802 803
ATOM    803  N1  U   B  71      41.359 -45.077  38.248  0.00  0.00    +0.000 N 
ATOM    804  C2  U   B  71      41.617 -45.123  36.889  0.00  0.00    +0.000 A 
ATOM    805  O2  U   B  71      40.875 -45.676  36.092  0.00  0.00    +0.000 OA
ATOM    806  N3  U   B  71      42.779 -44.497  36.493  0.00  0.00    +0.000 N 
ATOM    807  C4  U   B  71      43.689 -43.841  37.298  0.00  0.00    +0.000 A 
ATOM    808  O4  U   B  71      44.688 -43.331  36.793  0.00  0.00    +0.000 OA
ATOM    809  C5  U   B  71      43.352 -43.838  38.686  0.00  0.00    +0.000 A 
ATOM    810  C6  U   B  71      42.225 -44.439  39.104  0.00  0.00    +0.000 A 
ATOM    811  H   U   B  71      42.983 -44.520  35.530  0.00  0.00    +0.000 HD
ENDBRANCH 802 803
BRANCH 801 812
ATOM    812  O2' U   B  71      39.073 -47.890  38.630  0.00  0.00    +0.000 OA
ATOM    813  H   U   B  71      38.380 -47.515  39.196  0.00  0.00    +0.000 HD
ENDBRANCH 801 812
BRANCH 800 814
ATOM    814  O3' U   B  71      40.462 -48.631  40.931  0.00  0.00    +0.000 OA
BRANCH 814 815
ATOM    815  P   C   B  72      41.672 -49.685  41.063  0.00  0.00    +0.000 P 
ATOM    816  OP2 C   B  72      42.909 -48.955  41.446  0.00  0.00    +0.000 OA
BRANCH 815 817
ATOM    817  OP1 C   B  72      41.202 -50.816  41.900  0.00  0.00    +0.000 OA
ATOM    818  H   C   B  72      40.389 -51.184  41.520  0.00  0.00    +0.000 HD
ENDBRANCH 815 817
BRANCH 815 819
ATOM    819  O5' C   B  72      41.856 -50.204  39.569  0.00  0.00    +0.000 OA
BRANCH 819 820
ATOM    820  C5' C   B  72      40.825 -50.937  38.911  0.00  0.00    +0.000 C 
BRANCH 820 821
ATOM    821  C4' C   B  72      41.129 -51.112  37.444  0.00  0.00    +0.000 C 
ATOM    822  O4' C   B  72      41.215 -49.811  36.799  0.00  0.00    +0.000 OA
ATOM    823  C3' C   B  72      42.453 -51.762  37.120  0.00  0.00    +0.000 C 
ATOM    824  C2' C   B  72      42.689 -51.298  35.688  0.00  0.00    +0.000 C 
ATOM    825  C1' C   B  72      42.167 -49.864  35.750  0.00  0.00    +0.000 C 
BRANCH 825 826
ATOM    826  N1  C   B  72      43.242 -48.883  36.021  0.00  0.00    +0.000 N 
ATOM    827  C2  C   B  72      44.043 -48.459  34.954  0.00  0.00    +0.000 A 
ATOM    828  O2  C   B  72      43.832 -48.909  33.818  0.00  0.00    +0.000 OA
ATOM    829  N3  C   B  72      45.038 -47.558  35.188  0.00  0.00    +0.000 NA
ATOM    830  C4  C   B  72      45.244 -47.089  36.419  0.00  0.00    +0.000 A 
ATOM    831  N4  C   B  72      46.230 -46.209  36.600  0.00  0.00    +0.000 N 
ATOM    832  C5  C   B  72      44.444 -47.507  37.517  0.00  0.00    +0.000 A 
ATOM    833  C6  C   B  72      43.463 -48.393  37.275  0.00  0.00    +0.000 A 
ATOM    834  H   C   B  72      46.781 -45.923  35.836  0.00  0.00    +0.000 HD
ATOM    835  H   C   B  72      46.407 -45.846  37.498  0.00  0.00    +0.000 HD
ENDBRANCH 825 826
BRANCH 824 836
ATOM    836  O2' C   B  72      41.917 -52.032  34.763  0.00  0.00    +0.000 OA
ATOM    837  H   C   B  72      40.979 -51.967  35.001  0.00  0.00    +0.000 HD
ENDBRANCH 824 836
BRANCH 823 838
ATOM    838  O3' C   B  72      42.414 -53.179  37.252  0.00  0.00    +0.000 OA
BRANCH 838 839
ATOM    839  P   U   B  73      43.770 -54.003  37.666  0.00  0.00    +0.000 P 
ATOM    840  OP1 U   B  73      43.371 -55.394  37.990  0.00  0.00    +0.000 OA
BRANCH 839 841
ATOM    841  OP2 U   B  73      44.534 -53.210  38.661  0.00  0.00    +0.000 OA
ATOM    842  H   U   B  73      44.716 -52.328  38.300  0.00  0.00    +0.000 HD
ENDBRANCH 839 841
BRANCH 839 843
ATOM    843  O5' U   B  73      44.606 -54.016  36.305  0.00  0.00    +0.000 OA
BRANCH 843 844
ATOM    844  C5' U   B  73      44.128 -54.694  35.153  0.00  0.00    +0.000 C 
BRANCH 844 845
ATOM    845  C4' U   B  73      44.995 -54.418  33.947  0.00  0.00    +0.000 C 
ATOM    846  O4' U   B  73      44.961 -53.002  33.627  0.00  0.00    +0.000 OA
ATOM    847  C3' U   B  73      46.467 -54.713  34.112  0.00  0.00    +0.000 C 
ATOM    848  C2' U   B  73      47.087 -53.854  33.015  0.00  0.00    +0.000 C 
ATOM    849  C1' U   B  73      46.207 -52.606  33.084  0.00  0.00    +0.000 C 
BRANCH 849 850
ATOM    850  N1  U   B  73      46.797 -51.552  33.938  0.00  0.00    +0.000 N 
ATOM    851  C2  U   B  73      47.779 -50.751  33.376  0.00  0.00    +0.000 A 
ATOM    852  O2  U   B  73      48.163 -50.881  32.225  0.00  0.00    +0.000 OA
ATOM    853  N3  U   B  73      48.298 -49.787  34.213  0.00  0.00    +0.000 N 
ATOM    854  C4  U   B  73      47.942 -49.547  35.526  0.00  0.00    +0.000 A 
ATOM    855  O4  U   B  73      48.500 -48.646  36.150  0.00  0.00    +0.000 OA
ATOM    856  C5  U   B  73      46.924 -50.414  36.028  0.00  0.00    +0.000 A 
ATOM    857  C6  U   B  73      46.398 -51.363  35.236  0.00  0.00    +0.000 A 
ATOM    858  H   U   B  73      48.998 -49.207  33.834  0.00  0.00    +0.000 HD
ENDBRANCH 849 850
BRANCH 848 859
ATOM    859  O2' U   B  73      46.948 -54.449  31.740  0.00  0.00    +0.000 OA
ATOM    860  H   U   B  73      46.010 -54.621  31.564  0.00  0.00    +0.000 HD
ENDBRANCH 848 859
BRANCH 847 861
ATOM    861  O3' U   B  73      46.767 -56.099  33.978  0.00  0.00    +0.000 OA
BRANCH 861 862
ATOM    862  P   C   B  74      47.989 -56.742  34.819  0.00  0.00    +0.000 P 
ATOM    863  OP1 C   B  74      47.914 -58.217  34.662  0.00  0.00    +0.000 OA
BRANCH 862 864
ATOM    864  OP2 C   B  74      48.000 -56.154  36.182  0.00  0.00    +0.000 OA
ATOM    865  H   C   B  74      48.052 -55.188  36.117  0.00  0.00    +0.000 HD
ENDBRANCH 862 864
BRANCH 862 866
ATOM    866  O5' C   B  74      49.280 -56.217  34.050  0.00  0.00    +0.000 OA
BRANCH 866 867
ATOM    867  C5' C   B  74      49.554 -56.613  32.712  0.00  0.00    +0.000 C 
BRANCH 867 868
ATOM    868  C4' C   B  74      50.740 -55.867  32.153  0.00  0.00    +0.000 C 
ATOM    869  O4' C   B  74      50.444 -54.444  32.104  0.00  0.00    +0.000 OA
ATOM    870  C3' C   B  74      52.013 -55.945  32.964  0.00  0.00    +0.000 C 
ATOM    871  C2' C   B  74      52.771 -54.714  32.481  0.00  0.00    +0.000 C 
ATOM    872  C1' C   B  74      51.633 -53.707  32.320  0.00  0.00    +0.000 C 
BRANCH 872 873
ATOM    873  N1  C   B  74      51.464 -52.853  33.515  0.00  0.00    +0.000 N 
ATOM    874  C2  C   B  74      52.307 -51.744  33.668  0.00  0.00    +0.000 A 
ATOM    875  O2  C   B  74      53.163 -51.509  32.804  0.00  0.00    +0.000 OA
ATOM    876  N3  C   B  74      52.165 -50.949  34.760  0.00  0.00    +0.000 NA
ATOM    877  C4  C   B  74      51.231 -51.227  35.675  0.00  0.00    +0.000 A 
ATOM    878  N4  C   B  74      51.124 -50.421  36.731  0.00  0.00    +0.000 N 
ATOM    879  C5  C   B  74      50.364 -52.347  35.540  0.00  0.00    +0.000 A 
ATOM    880  C6  C   B  74      50.513 -53.123  34.455  0.00  0.00    +0.000 A 
ATOM    881  H   C   B  74      51.725 -49.647  36.822  0.00  0.00    +0.000 HD
ATOM    882  H   C   B  74      50.444 -50.600  37.420  0.00  0.00    +0.000 HD
ENDBRANCH 872 873
BRANCH 871 883
ATOM    883  O2' C   B  74      53.378 -54.930  31.221  0.00  0.00    +0.000 OA
ATOM    884  H   C   B  74      52.703 -55.200  30.579  0.00  0.00    +0.000 HD
ENDBRANCH 871 883
BRANCH 870 885
ATOM    885  O3' C   B  74      52.723 -57.160  32.751  0.00  0.00    +0.000 OA
BRANCH 885 886
ATOM    886  P   C   B  75      53.601 -57.827  33.954  0.00  0.00    +0.000 P 
ATOM    887  OP1 C   B  75      54.032 -59.178  33.515  0.00  0.00    +0.000 OA
BRANCH 886 888
ATOM    888  OP2 C   B  75      52.840 -57.676  35.216  0.00  0.00    +0.000 OA
ATOM    889  H   C   B  75      52.051 -58.239  35.187  0.00  0.00    +0.000 HD
ENDBRANCH 886 888
BRANCH 886 890
ATOM    890  O5' C   B  75      54.884 -56.892  34.039  0.00  0.00    +0.000 OA
BRANCH 890 891
ATOM    891  C5' C   B  75      55.838 -56.857  32.986  0.00  0.00    +0.000 C 
BRANCH 891 892
ATOM    892  C4' C   B  75      56.954 -55.887  33.291  0.00  0.00    +0.000 C 
ATOM    893  O4' C   B  75      56.430 -54.531  33.311  0.00  0.00    +0.000 OA
ATOM    894  C3' C   B  75      57.613 -56.041  34.646  0.00  0.00    +0.000 C 
ATOM    895  C2' C   B  75      58.227 -54.663  34.858  0.00  0.00    +0.000 C 
ATOM    896  C1' C   B  75      57.155 -53.759  34.251  0.00  0.00    +0.000 C 
BRANCH 896 897
ATOM    897  N1  C   B  75      56.223 -53.227  35.264  0.00  0.00    +0.000 N 
ATOM    898  C2  C   B  75      56.591 -52.074  35.971  0.00  0.00    +0.000 A 
ATOM    899  O2  C   B  75      57.679 -51.535  35.724  0.00  0.00    +0.000 OA
ATOM    900  N3  C   B  75      55.744 -51.571  36.905  0.00  0.00    +0.000 NA
ATOM    901  C4  C   B  75      54.578 -52.174  37.146  0.00  0.00    +0.000 A 
ATOM    902  N4  C   B  75      53.775 -51.648  38.071  0.00  0.00    +0.000 N 
ATOM    903  C5  C   B  75      54.183 -53.347  36.444  0.00  0.00    +0.000 A 
ATOM    904  C6  C   B  75      55.028 -53.832  35.520  0.00  0.00    +0.000 A 
ATOM    905  H   C   B  75      52.909 -52.072  38.269  0.00  0.00    +0.000 HD
ATOM    906  H   C   B  75      54.048 -50.836  38.556  0.00  0.00    +0.000 HD
ENDBRANCH 896 897
BRANCH 895 907
ATOM    907  O2' C   B  75      59.429 -54.510  34.127  0.00  0.00    +0.000 OA
ATOM    908  H   C   B  75      59.260 -54.680  33.187  0.00  0.00    +0.000 HD
ENDBRANCH 895 907
BRANCH 894 909
ATOM    909  O3' C   B  75      58.569 -57.097  34.670  0.00  0.00    +0.000 OA
BRANCH 909 910
ATOM    910  P   A   B  76      58.810 -57.935  36.020  0.00  0.00    +0.000 P 
ATOM    911  OP1 A   B  76      59.582 -59.159  35.674  0.00  0.00    +0.000 OA
BRANCH 910 912
ATOM    912  OP2 A   B  76      57.522 -58.052  36.733  0.00  0.00    +0.000 OA
ATOM    913  H   A   B  76      56.927 -58.631  36.232  0.00  0.00    +0.000 HD
ENDBRANCH 910 912
BRANCH 910 914
ATOM    914  O5' A   B  76      59.759 -56.976  36.874  0.00  0.00    +0.000 OA
BRANCH 914 915
ATOM    915  C5' A   B  76      61.108 -56.754  36.485  0.00  0.00    +0.000 C 
BRANCH 915 916
ATOM    916  C4' A   B  76      61.764 -55.695  37.345  0.00  0.00    +0.000 C 
ATOM    917  O4' A   B  76      61.064 -54.443  37.171  0.00  0.00    +0.000 OA
ATOM    918  C3' A   B  76      61.714 -55.932  38.847  0.00  0.00    +0.000 C 
ATOM    919  C2' A   B  76      61.894 -54.525  39.399  0.00  0.00    +0.000 C 
ATOM    920  C1' A   B  76      61.116 -53.693  38.374  0.00  0.00    +0.000 C 
BRANCH 920 921
ATOM    921  N9  A   B  76      59.742 -53.408  38.810  0.00  0.00    +0.000 N 
ATOM    922  C8  A   B  76      58.633 -54.198  38.722  0.00  0.00    +0.000 A 
ATOM    923  N7  A   B  76      57.544 -53.648  39.211  0.00  0.00    +0.000 NA
ATOM    924  C5  A   B  76      57.972 -52.407  39.655  0.00  0.00    +0.000 A 
ATOM    925  C6  A   B  76      57.301 -51.336  40.275  0.00  0.00    +0.000 A 
ATOM    926  N6  A   B  76      55.994 -51.351  40.575  0.00  0.00    +0.000 N 
ATOM    927  N1  A   B  76      58.019 -50.236  40.581  0.00  0.00    +0.000 NA
ATOM    928  C2  A   B  76      59.324 -50.221  40.287  0.00  0.00    +0.000 A 
ATOM    929  N3  A   B  76      60.064 -51.162  39.704  0.00  0.00    +0.000 NA
ATOM    930  C4  A   B  76      59.312 -52.243  39.415  0.00  0.00    +0.000 A 
ATOM    931  H   A   B  76      55.449 -52.143  40.361  0.00  0.00    +0.000 HD
ATOM    932  H   A   B  76      55.580 -50.570  41.009  0.00  0.00    +0.000 HD
ENDBRANCH 920 921
BRANCH 918 933
ATOM    933  O3' A   B  76      62.713 -56.850  39.288  0.00  0.00    +0.000 OA
ATOM    934  H   A   B  76      63.589 -56.522  39.032  0.00  0.00    +0.000 HD
ENDBRANCH 918 933
BRANCH 919 935
ATOM    935  O2' A   B  76      63.253 -54.136  39.391  0.00  0.00    +0.000 OA
ATOM    936  H   A   B  76      63.605 -54.211  38.490  0.00  0.00    +0.000 HD
ENDBRANCH 919 935
ENDBRANCH 915 916
ENDBRANCH 914 915
ENDBRANCH 910 914
ENDBRANCH 909 910
ENDBRANCH 894 909
ENDBRANCH 891 892
ENDBRANCH 890 891
ENDBRANCH 886 890
ENDBRANCH 885 886
ENDBRANCH 870 885
ENDBRANCH 867 868
ENDBRANCH 866 867
ENDBRANCH 862 866
ENDBRANCH 861 862
ENDBRANCH 847 861
ENDBRANCH 844 845
ENDBRANCH 843 844
ENDBRANCH 839 843
ENDBRANCH 838 839
ENDBRANCH 823 838
ENDBRANCH 820 821
ENDBRANCH 819 820
ENDBRANCH 815 819
ENDBRANCH 814 815
ENDBRANCH 800 814
ENDBRANCH 797 798
ENDBRANCH 796 797
ENDBRANCH 792 796
ENDBRANCH 791 792
ENDBRANCH 774 791
ENDBRANCH 771 772
ENDBRANCH 770 771
ENDBRANCH 766 770
ENDBRANCH 765 766
ENDBRANCH 748 765
ENDBRANCH 745 746
ENDBRANCH 744 745
ENDBRANCH 740 744
ENDBRANCH 739 740
ENDBRANCH 722 739
ENDBRANCH 719 720
ENDBRANCH 718 719
ENDBRANCH 714 718
ENDBRANCH 713 714
ENDBRANCH 696 713
ENDBRANCH 693 694
ENDBRANCH 692 693
ENDBRANCH 688 692
ENDBRANCH 687 688
ENDBRANCH 670 687
ENDBRANCH 667 668
ENDBRANCH 666 667
ENDBRANCH 662 666
ENDBRANCH 661 662
ENDBRANCH 646 661
ENDBRANCH 643 644
ENDBRANCH 642 643
ENDBRANCH 638 642
ENDBRANCH 637 638
ENDBRANCH 620 637
ENDBRANCH 617 618
ENDBRANCH 616 617
ENDBRANCH 612 616
ENDBRANCH 611 612
ENDBRANCH 597 611
ENDBRANCH 594 595
ENDBRANCH 593 594
ENDBRANCH 589 593
ENDBRANCH 588 589
ENDBRANCH 573 588
ENDBRANCH 570 571
ENDBRANCH 569 570
ENDBRANCH 565 569
ENDBRANCH 564 565
ENDBRANCH 547 564
ENDBRANCH 544 545
ENDBRANCH 543 544
ENDBRANCH 539 543
ENDBRANCH 538 539
ENDBRANCH 519 538
ENDBRANCH 516 517
ENDBRANCH 515 516
ENDBRANCH 511 515
ENDBRANCH 510 511
ENDBRANCH 493 510
ENDBRANCH 490 491
ENDBRANCH 489 490
ENDBRANCH 485 489
ENDBRANCH 484 485
ENDBRANCH 469 484
ENDBRANCH 466 467
ENDBRANCH 465 466
ENDBRANCH 461 465
ENDBRANCH 460 461
ENDBRANCH 443 460
ENDBRANCH 440 441
ENDBRANCH 439 440
ENDBRANCH 435 439
ENDBRANCH 434 435
ENDBRANCH 417 434
ENDBRANCH 414 415
ENDBRANCH 413 414
ENDBRANCH 409 413
ENDBRANCH 408 409
ENDBRANCH 391 408
ENDBRANCH 388 389
ENDBRANCH 387 388
ENDBRANCH 383 387
ENDBRANCH 382 383
ENDBRANCH 365 382
ENDBRANCH 362 363
ENDBRANCH 361 362
ENDBRANCH 357 361
ENDBRANCH 356 357
ENDBRANCH 339 356
ENDBRANCH 336 337
ENDBRANCH 335 336
ENDBRANCH 331 335
ENDBRANCH 330 331
ENDBRANCH 316 330
ENDBRANCH 313 314
ENDBRANCH 312 313
ENDBRANCH 308 312
ENDBRANCH 307 308
ENDBRANCH 293 307
ENDBRANCH 290 291
ENDBRANCH 289 290
ENDBRANCH 285 289
ENDBRANCH 284 285
ENDBRANCH 270 284
ENDBRANCH 267 268
ENDBRANCH 266 267
ENDBRANCH 262 266
ENDBRANCH 261 262
ENDBRANCH 247 261
ENDBRANCH 244 245
ENDBRANCH 243 244
ENDBRANCH 239 243
ENDBRANCH 238 239
ENDBRANCH 221 238
ENDBRANCH 218 219
ENDBRANCH 217 218
ENDBRANCH 213 217
ENDBRANCH 212 213
ENDBRANCH 198 212
ENDBRANCH 195 196
ENDBRANCH 194 195
ENDBRANCH 190 194
ENDBRANCH 189 190
ENDBRANCH 175 189
ENDBRANCH 172 173
ENDBRANCH 171 172
ENDBRANCH 167 171
ENDBRANCH 166 167
ENDBRANCH 152 166
ENDBRANCH 149 150
ENDBRANCH 148 149
ENDBRANCH 144 148
ENDBRANCH 143 144
ENDBRANCH 128 143
ENDBRANCH 125 126
ENDBRANCH 124 125
ENDBRANCH 120 124
ENDBRANCH 119 120
ENDBRANCH 102 119
ENDBRANCH  99 100
ENDBRANCH  98  99
ENDBRANCH  94  98
ENDBRANCH  93  94
ENDBRANCH  79  93
ENDBRANCH  76  77
ENDBRANCH  75  76
ENDBRANCH  71  75
ENDBRANCH  70  71
ENDBRANCH  56  70
ENDBRANCH  53  54
ENDBRANCH  52  53
ENDBRANCH  48  52
ENDBRANCH  47  48
ENDBRANCH  32  47
ENDBRANCH  29  30
ENDBRANCH  28  29
ENDBRANCH  24  28
ENDBRANCH  23  24
ENDBRANCH   9  23
ENDBRANCH   6   7
ENDBRANCH   5   6
ENDBRANCH   1   5
BRANCH   1 937
ATOM    937  O3' U   B  38     -21.896  -4.226   5.196  0.00  0.00    +0.000 OA
BRANCH 937 940
ATOM    938  C4' U   B  38     -20.108  -5.661   6.012  0.00  0.00    +0.000 C 
ATOM    939  O4' U   B  38     -18.863  -5.417   6.720  0.00  0.00    +0.000 OA
ATOM    940  C3' U   B  38     -20.504  -4.301   5.481  0.00  0.00    +0.000 C 
ATOM    941  C2' U   B  38     -20.071  -3.371   6.618  0.00  0.00    +0.000 C 
ATOM    942  C1' U   B  38     -18.796  -4.060   7.121  0.00  0.00    +0.000 C 
BRANCH 942 943
ATOM    943  N1  U   B  38     -17.559  -3.455   6.579  0.00  0.00    +0.000 N 
ATOM    944  C2  U   B  38     -16.973  -2.436   7.313  0.00  0.00    +0.000 A 
ATOM    945  O2  U   B  38     -17.430  -2.031   8.367  0.00  0.00    +0.000 OA
ATOM    946  N3  U   B  38     -15.828  -1.907   6.766  0.00  0.00    +0.000 N 
ATOM    947  C4  U   B  38     -15.218  -2.285   5.585  0.00  0.00    +0.000 A 
ATOM    948  O4  U   B  38     -14.190  -1.712   5.227  0.00  0.00    +0.000 OA
ATOM    949  C5  U   B  38     -15.885  -3.346   4.887  0.00  0.00    +0.000 A 
ATOM    950  C6  U   B  38     -17.006  -3.882   5.396  0.00  0.00    +0.000 A 
ATOM    951  H   U   B  38     -15.396  -1.180   7.270  0.00  0.00    +0.000 HD
ENDBRANCH 942 943
BRANCH 941 952
ATOM    952  O2' U   B  38     -21.026  -3.337   7.659  0.00  0.00    +0.000 OA
ATOM    953  H   U   B  38     -21.180  -4.237   7.986  0.00  0.00    +0.000 HD
ENDBRANCH 941 952
BRANCH 938 954
ATOM    954  C5' U   B  38     -19.907  -6.743   4.974  0.00  0.00    +0.000 C 
BRANCH 954 955
ATOM    955  O5' U   B  38     -18.967  -6.330   3.996  0.00  0.00    +0.000 OA
BRANCH 955 956
ATOM    956  P   U   B  38     -18.361  -7.386   2.964  0.00  0.00    +0.000 P 
ATOM    957  OP2 U   B  38     -17.373  -6.681   2.110  0.00  0.00    +0.000 OA
BRANCH 956 958
ATOM    958  OP1 U   B  38     -19.487  -8.119   2.332  0.00  0.00    +0.000 OA
ATOM    959  H   U   B  38     -19.137  -8.767   1.700  0.00  0.00    +0.000 HD
ENDBRANCH 956 958
BRANCH 956 960
ATOM    960  O3' A   B  37     -17.572  -8.413   3.890  0.00  0.00    +0.000 OA
BRANCH 960 963
ATOM    961  C4' A   B  37     -15.398  -9.328   4.522  0.00  0.00    +0.000 C 
ATOM    962  O4' A   B  37     -14.376  -8.926   5.468  0.00  0.00    +0.000 OA
ATOM    963  C3' A   B  37     -16.277  -8.099   4.387  0.00  0.00    +0.000 C 
ATOM    964  C2' A   B  37     -16.291  -7.560   5.812  0.00  0.00    +0.000 C 
ATOM    965  C1' A   B  37     -14.862  -7.862   6.265  0.00  0.00    +0.000 C 
BRANCH 965 966
ATOM    966  N9  A   B  37     -13.967  -6.709   6.107  0.00  0.00    +0.000 N 
ATOM    967  C8  A   B  37     -13.128  -6.416   5.062  0.00  0.00    +0.000 A 
ATOM    968  N7  A   B  37     -12.449  -5.304   5.224  0.00  0.00    +0.000 NA
ATOM    969  C5  A   B  37     -12.871  -4.831   6.460  0.00  0.00    +0.000 A 
ATOM    970  C6  A   B  37     -12.530  -3.690   7.209  0.00  0.00    +0.000 A 
ATOM    971  N6  A   B  37     -11.640  -2.770   6.802  0.00  0.00    +0.000 N 
ATOM    972  N1  A   B  37     -13.134  -3.517   8.404  0.00  0.00    +0.000 NA
ATOM    973  C2  A   B  37     -14.021  -4.433   8.810  0.00  0.00    +0.000 A 
ATOM    974  N3  A   B  37     -14.424  -5.547   8.200  0.00  0.00    +0.000 NA
ATOM    975  C4  A   B  37     -13.805  -5.686   7.014  0.00  0.00    +0.000 A 
ATOM    976  H   A   B  37     -11.186  -2.874   5.934  0.00  0.00    +0.000 HD
ATOM    977  H   A   B  37     -11.441  -1.992   7.371  0.00  0.00    +0.000 HD
ENDBRANCH 965 966
BRANCH 964 978
ATOM    978  O2' A   B  37     -17.200  -8.268   6.636  0.00  0.00    +0.000 OA
ATOM    979  H   A   B  37     -16.979  -9.212   6.624  0.00  0.00    +0.000 HD
ENDBRANCH 964 978
BRANCH 961 980
ATOM    980  C5' A   B  37     -14.760  -9.824   3.246  0.00  0.00    +0.000 C 
BRANCH 980 981
ATOM    981  O5' A   B  37     -14.108  -8.762   2.563  0.00  0.00    +0.000 OA
BRANCH 981 982
ATOM    982  P   A   B  37     -13.328  -9.046   1.208  0.00  0.00    +0.000 P 
ATOM    983  OP1 A   B  37     -14.213  -9.844   0.320  0.00  0.00    +0.000 OA
BRANCH 982 984
ATOM    984  OP2 A   B  37     -12.764  -7.758   0.722  0.00  0.00    +0.000 OA
ATOM    985  H   A   B  37     -12.282  -7.908  -0.106  0.00  0.00    +0.000 HD
ENDBRANCH 982 984
BRANCH 982 986
ATOM    986  O3' U   B  36     -12.109  -9.989   1.668  0.00  0.00    +0.000 OA
BRANCH 986 989
ATOM    987  C4' U   B  36      -9.707 -10.218   2.046  0.00  0.00    +0.000 C 
ATOM    988  O4' U   B  36      -8.816  -9.808   3.117  0.00  0.00    +0.000 OA
ATOM    989  C3' U   B  36     -10.969  -9.425   2.303  0.00  0.00    +0.000 C 
ATOM    990  C2' U   B  36     -11.050  -9.442   3.828  0.00  0.00    +0.000 C 
ATOM    991  C1' U   B  36      -9.576  -9.309   4.208  0.00  0.00    +0.000 C 
BRANCH 991 992
ATOM    992  N1  U   B  36      -9.190  -7.904   4.473  0.00  0.00    +0.000 N 
ATOM    993  C2  U   B  36      -9.506  -7.373   5.714  0.00  0.00    +0.000 A 
ATOM    994  O2  U   B  36     -10.084  -8.010   6.577  0.00  0.00    +0.000 OA
ATOM    995  N3  U   B  36      -9.124  -6.068   5.907  0.00  0.00    +0.000 N 
ATOM    996  C4  U   B  36      -8.471  -5.249   5.007  0.00  0.00    +0.000 A 
ATOM    997  O4  U   B  36      -8.193  -4.093   5.332  0.00  0.00    +0.000 OA
ATOM    998  C5  U   B  36      -8.176  -5.864   3.750  0.00  0.00    +0.000 A 
ATOM    999  C6  U   B  36      -8.537  -7.142   3.532  0.00  0.00    +0.000 A 
ATOM   1000  H   U   B  36      -9.339  -5.673   6.783  0.00  0.00    +0.000 HD
ENDBRANCH 991 992
BRANCH 9901001
ATOM   1001  O2' U   B  36     -11.552 -10.672   4.311  0.00  0.00    +0.000 OA
ATOM   1002  H   U   B  36     -11.001 -11.398   3.980  0.00  0.00    +0.000 HD
ENDBRANCH 9901001
BRANCH 9871003
ATOM   1003  C5' U   B  36      -9.050  -9.998   0.706  0.00  0.00    +0.000 C 
BRANCH10031004
ATOM   1004  O5' U   B  36      -8.719  -8.625   0.519  0.00  0.00    +0.000 OA
BRANCH10041005
ATOM   1005  P   U   B  36      -7.925  -8.144  -0.776  0.00  0.00    +0.000 P 
ATOM   1006  OP1 U   B  36      -8.552  -8.767  -1.963  0.00  0.00    +0.000 OA
BRANCH10051007
ATOM   1007  OP2 U   B  36      -7.786  -6.665  -0.705  0.00  0.00    +0.000 OA
ATOM   1008  H   U   B  36      -7.304  -6.348  -1.485  0.00  0.00    +0.000 HD
ENDBRANCH10051007
BRANCH10051009
ATOM   1009  O3' A   B  35      -6.463  -8.798  -0.609  0.00  0.00    +0.000 OA
BRANCH10091012
ATOM   1010  C4' A   B  35      -4.146  -8.458   0.136  0.00  0.00    +0.000 C 
ATOM   1011  O4' A   B  35      -3.504  -8.503   1.436  0.00  0.00    +0.000 OA
ATOM   1012  C3' A   B  35      -5.625  -8.421   0.473  0.00  0.00    +0.000 C 
ATOM   1013  C2' A   B  35      -5.689  -9.397   1.642  0.00  0.00    +0.000 C 
ATOM   1014  C1' A   B  35      -4.404  -9.054   2.386  0.00  0.00    +0.000 C 
BRANCH10141015
ATOM   1015  N9  A   B  35      -4.650  -8.076   3.456  0.00  0.00    +0.000 N 
ATOM   1016  C8  A   B  35      -4.311  -6.743   3.507  0.00  0.00    +0.000 A 
ATOM   1017  N7  A   B  35      -4.687  -6.145   4.613  0.00  0.00    +0.000 NA
ATOM   1018  C5  A   B  35      -5.323  -7.146   5.336  0.00  0.00    +0.000 A 
ATOM   1019  C6  A   B  35      -5.951  -7.161   6.593  0.00  0.00    +0.000 A 
ATOM   1020  N6  A   B  35      -6.046  -6.086   7.388  0.00  0.00    +0.000 N 
ATOM   1021  N1  A   B  35      -6.485  -8.328   7.014  0.00  0.00    +0.000 NA
ATOM   1022  C2  A   B  35      -6.393  -9.401   6.222  0.00  0.00    +0.000 A 
ATOM   1023  N3  A   B  35      -5.824  -9.514   5.023  0.00  0.00    +0.000 NA
ATOM   1024  C4  A   B  35      -5.308  -8.336   4.634  0.00  0.00    +0.000 A 
ATOM   1025  H   A   B  35      -5.664  -5.226   7.100  0.00  0.00    +0.000 HD
ATOM   1026  H   A   B  35      -6.498  -6.157   8.260  0.00  0.00    +0.000 HD
ENDBRANCH10141015
BRANCH10131027
ATOM   1027  O2' A   B  35      -5.634 -10.743   1.209  0.00  0.00    +0.000 OA
ATOM   1028  H   A   B  35      -4.831 -10.881   0.682  0.00  0.00    +0.000 HD
ENDBRANCH10131027
BRANCH10101029
ATOM   1029  C5' A   B  35      -3.602  -7.310  -0.676  0.00  0.00    +0.000 C 
BRANCH10291030
ATOM   1030  O5' A   B  35      -3.412  -6.140   0.110  0.00  0.00    +0.000 OA
BRANCH10301031
ATOM   1031  P   A   B  35      -2.428  -4.977  -0.372  0.00  0.00    +0.000 P 
ATOM   1032  OP1 A   B  35      -2.524  -4.866  -1.848  0.00  0.00    +0.000 OA
BRANCH10311033
ATOM   1033  OP2 A   B  35      -2.694  -3.780   0.465  0.00  0.00    +0.000 OA
ATOM   1034  H   A   B  35      -2.108  -3.057   0.191  0.00  0.00    +0.000 HD
ENDBRANCH10311033
BRANCH10311035
ATOM   1035  O3' A   B  34      -0.981  -5.556  -0.019  0.00  0.00    +0.000 OA
BRANCH10351038
ATOM   1036  C4' A   B  34       0.929  -5.438   1.523  0.00  0.00    +0.000 C 
ATOM   1037  O4' A   B  34       1.214  -6.052   2.808  0.00  0.00    +0.000 OA
ATOM   1038  C3' A   B  34      -0.559  -5.669   1.330  0.00  0.00    +0.000 C 
ATOM   1039  C2' A   B  34      -0.722  -7.073   1.899  0.00  0.00    +0.000 C 
ATOM   1040  C1' A   B  34       0.221  -7.024   3.094  0.00  0.00    +0.000 C 
BRANCH10401041
ATOM   1041  N9  A   B  34      -0.484  -6.639   4.327  0.00  0.00    +0.000 N 
ATOM   1042  C8  A   B  34      -0.561  -5.400   4.920  0.00  0.00    +0.000 A 
ATOM   1043  N7  A   B  34      -1.272  -5.381   6.022  0.00  0.00    +0.000 NA
ATOM   1044  C5  A   B  34      -1.705  -6.692   6.162  0.00  0.00    +0.000 A 
ATOM   1045  C6  A   B  34      -2.504  -7.331   7.127  0.00  0.00    +0.000 A 
ATOM   1046  N6  A   B  34      -3.034  -6.703   8.184  0.00  0.00    +0.000 N 
ATOM   1047  N1  A   B  34      -2.742  -8.651   6.971  0.00  0.00    +0.000 NA
ATOM   1048  C2  A   B  34      -2.212  -9.278   5.913  0.00  0.00    +0.000 A 
ATOM   1049  N3  A   B  34      -1.443  -8.788   4.941  0.00  0.00    +0.000 NA
ATOM   1050  C4  A   B  34      -1.227  -7.474   5.125  0.00  0.00    +0.000 A 
ATOM   1051  H   A   B  34      -2.873  -5.741   8.317  0.00  0.00    +0.000 HD
ATOM   1052  H   A   B  34      -3.585  -7.203   8.829  0.00  0.00    +0.000 HD
ENDBRANCH10401041
BRANCH10391053
ATOM   1053  O2' A   B  34      -0.280  -8.065   0.994  0.00  0.00    +0.000 OA
ATOM   1054  H   A   B  34       0.644  -7.893   0.752  0.00  0.00    +0.000 HD
ENDBRANCH10391053
BRANCH10361055
ATOM   1055  C5' A   B  34       1.384  -3.998   1.533  0.00  0.00    +0.000 C 
BRANCH10551056
ATOM   1056  O5' A   B  34       0.689  -3.234   2.510  0.00  0.00    +0.000 OA
BRANCH10561057
ATOM   1057  P   A   B  34       1.147  -1.748   2.874  0.00  0.00    +0.000 P 
ATOM   1058  OP1 A   B  34       1.403  -1.017   1.610  0.00  0.00    +0.000 OA
BRANCH10571059
ATOM   1059  OP2 A   B  34       0.179  -1.195   3.858  0.00  0.00    +0.000 OA
ATOM   1060  H   A   B  34      -0.675  -1.047   3.423  0.00  0.00    +0.000 HD
ENDBRANCH10571059
BRANCH10571061
ATOM   1061  O3' U   B  33       2.552  -1.990   3.596  0.00  0.00    +0.000 OA
BRANCH10611064
ATOM   1062  C4' U   B  33       3.746  -1.937   5.738  0.00  0.00    +0.000 C 
ATOM   1063  O4' U   B  33       3.928  -2.904   6.806  0.00  0.00    +0.000 OA
ATOM   1064  C3' U   B  33       2.604  -2.508   4.917  0.00  0.00    +0.000 C 
ATOM   1065  C2' U   B  33       2.904  -4.005   4.974  0.00  0.00    +0.000 C 
ATOM   1066  C1' U   B  33       3.400  -4.158   6.408  0.00  0.00    +0.000 C 
BRANCH10661067
ATOM   1067  N1  U   B  33       2.310  -4.543   7.340  0.00  0.00    +0.000 N 
ATOM   1068  C2  U   B  33       1.968  -5.887   7.411  0.00  0.00    +0.000 A 
ATOM   1069  O2  U   B  33       2.521  -6.747   6.751  0.00  0.00    +0.000 OA
ATOM   1070  N3  U   B  33       0.950  -6.186   8.289  0.00  0.00    +0.000 N 
ATOM   1071  C4  U   B  33       0.250  -5.299   9.082  0.00  0.00    +0.000 A 
ATOM   1072  O4  U   B  33      -0.643  -5.716   9.822  0.00  0.00    +0.000 OA
ATOM   1073  C5  U   B  33       0.656  -3.934   8.952  0.00  0.00    +0.000 A 
ATOM   1074  C6  U   B  33       1.649  -3.610   8.106  0.00  0.00    +0.000 A 
ATOM   1075  H   U   B  33       0.694  -7.134   8.359  0.00  0.00    +0.000 HD
ENDBRANCH10661067
BRANCH10651076
ATOM   1076  O2' U   B  33       3.933  -4.371   4.083  0.00  0.00    +0.000 OA
ATOM   1077  H   U   B  33       4.728  -3.850   4.276  0.00  0.00    +0.000 HD
ENDBRANCH10651076
BRANCH10621078
ATOM   1078  C5' U   B  33       3.513  -0.564   6.321  0.00  0.00    +0.000 C 
BRANCH10781079
ATOM   1079  O5' U   B  33       2.324  -0.518   7.098  0.00  0.00    +0.000 OA
BRANCH10791080
ATOM   1080  P   U   B  33       1.975   0.748   8.014  0.00  0.00    +0.000 P 
ATOM   1081  OP1 U   B  33       2.147   1.971   7.197  0.00  0.00    +0.000 OA
BRANCH10801082
ATOM   1082  OP2 U   B  33       0.671   0.485   8.680  0.00  0.00    +0.000 OA
ATOM   1083  H   U   B  33      -0.039   0.501   8.019  0.00  0.00    +0.000 HD
ENDBRANCH10801082
BRANCH10801084
ATOM   1084  O3' A   B  32       3.129   0.717   9.119  0.00  0.00    +0.000 OA
BRANCH10841087
ATOM   1085  C4' A   B  32       3.665   0.282  11.472  0.00  0.00    +0.000 C 
ATOM   1086  O4' A   B  32       4.076  -0.905  12.201  0.00  0.00    +0.000 OA
ATOM   1087  C3' A   B  32       3.124  -0.256  10.157  0.00  0.00    +0.000 C 
ATOM   1088  C2' A   B  32       4.064  -1.426   9.888  0.00  0.00    +0.000 C 
ATOM   1089  C1' A   B  32       4.268  -1.981  11.299  0.00  0.00    +0.000 C 
BRANCH10891090
ATOM   1090  N9  A   B  32       3.306  -3.044  11.629  0.00  0.00    +0.000 N 
ATOM   1091  C8  A   B  32       2.139  -2.937  12.347  0.00  0.00    +0.000 A 
ATOM   1092  N7  A   B  32       1.492  -4.072  12.477  0.00  0.00    +0.000 NA
ATOM   1093  C5  A   B  32       2.283  -4.988  11.796  0.00  0.00    +0.000 A 
ATOM   1094  C6  A   B  32       2.147  -6.369  11.564  0.00  0.00    +0.000 A 
ATOM   1095  N6  A   B  32       1.120  -7.097  12.016  0.00  0.00    +0.000 N 
ATOM   1096  N1  A   B  32       3.113  -6.982  10.847  0.00  0.00    +0.000 NA
ATOM   1097  C2  A   B  32       4.141  -6.253  10.394  0.00  0.00    +0.000 A 
ATOM   1098  N3  A   B  32       4.382  -4.951  10.550  0.00  0.00    +0.000 NA
ATOM   1099  C4  A   B  32       3.401  -4.369  11.267  0.00  0.00    +0.000 A 
ATOM   1100  H   A   B  32       1.077  -8.061  11.823  0.00  0.00    +0.000 HD
ATOM   1101  H   A   B  32       0.407  -6.668  12.542  0.00  0.00    +0.000 HD
ENDBRANCH10891090
BRANCH10881102
ATOM   1102  O2' A   B  32       5.309  -0.996   9.373  0.00  0.00    +0.000 OA
ATOM   1103  H   A   B  32       5.711  -0.361   9.987  0.00  0.00    +0.000 HD
ENDBRANCH10881102
BRANCH10851104
ATOM   1104  C5' A   B  32       2.684   1.079  12.303  0.00  0.00    +0.000 C 
BRANCH11041105
ATOM   1105  O5' A   B  32       1.515   0.318  12.582  0.00  0.00    +0.000 OA
BRANCH11051106
ATOM   1106  P   A   B  32       0.428   0.831  13.640  0.00  0.00    +0.000 P 
ATOM   1107  OP1 A   B  32       0.122   2.252  13.335  0.00  0.00    +0.000 OA
BRANCH11061108
ATOM   1108  OP2 A   B  32      -0.676  -0.165  13.683  0.00  0.00    +0.000 OA
ATOM   1109  H   A   B  32      -1.160  -0.148  12.843  0.00  0.00    +0.000 HD
ENDBRANCH11061108
BRANCH11061110
ATOM   1110  O3' A   B  31       1.219   0.797  15.025  0.00  0.00    +0.000 OA
BRANCH11101113
ATOM   1111  C4' A   B  31       1.524  -0.301  17.193  0.00  0.00    +0.000 C 
ATOM   1112  O4' A   B  31       2.277  -1.467  17.627  0.00  0.00    +0.000 OA
ATOM   1113  C3' A   B  31       1.463  -0.443  15.680  0.00  0.00    +0.000 C 
ATOM   1114  C2' A   B  31       2.830  -1.030  15.363  0.00  0.00    +0.000 C 
ATOM   1115  C1' A   B  31       3.036  -1.979  16.547  0.00  0.00    +0.000 C 
BRANCH11151116
ATOM   1116  N9  A   B  31       2.577  -3.347  16.260  0.00  0.00    +0.000 N 
ATOM   1117  C8  A   B  31       1.392  -3.938  16.626  0.00  0.00    +0.000 A 
ATOM   1118  N7  A   B  31       1.273  -5.182  16.222  0.00  0.00    +0.000 NA
ATOM   1119  C5  A   B  31       2.459  -5.427  15.542  0.00  0.00    +0.000 A 
ATOM   1120  C6  A   B  31       2.954  -6.562  14.876  0.00  0.00    +0.000 A 
ATOM   1121  N1  A   B  31       4.171  -6.475  14.303  0.00  0.00    +0.000 NA
ATOM   1122  C2  A   B  31       4.846  -5.321  14.395  0.00  0.00    +0.000 A 
ATOM   1123  N3  A   B  31       4.491  -4.186  14.997  0.00  0.00    +0.000 NA
ATOM   1124  C4  A   B  31       3.270  -4.306  15.556  0.00  0.00    +0.000 A 
BRANCH11201125
ATOM   1125  N6  A   B  31       2.279  -7.715  14.783  0.00  0.00    +0.000 N 
ATOM   1126  H   A   B  31       2.674  -8.479  14.304  0.00  0.00    +0.000 HD
ATOM   1127  H   A   B  31       1.388  -7.798  15.194  0.00  0.00    +0.000 HD
ENDBRANCH11201125
ENDBRANCH11151116
BRANCH11141128
ATOM   1128  O2' A   B  31       3.846  -0.042  15.378  0.00  0.00    +0.000 OA
ATOM   1129  H   A   B  31       3.850   0.404  16.239  0.00  0.00    +0.000 HD
ENDBRANCH11141128
BRANCH11111130
ATOM   1130  C5' A   B  31       0.187  -0.256  17.902  0.00  0.00    +0.000 C 
BRANCH11301131
ATOM   1131  O5' A   B  31      -0.573  -1.432  17.635  0.00  0.00    +0.000 OA
BRANCH11311132
ATOM   1132  P   A   B  31      -1.916  -1.749  18.450  0.00  0.00    +0.000 P 
ATOM   1133  OP2 A   B  31      -2.492  -3.010  17.913  0.00  0.00    +0.000 OA
BRANCH11321134
ATOM   1134  OP1 A   B  31      -2.744  -0.516  18.476  0.00  0.00    +0.000 OA
ATOM   1135  H   A   B  31      -3.080  -0.333  17.585  0.00  0.00    +0.000 HD
ENDBRANCH11321134
BRANCH11321136
ATOM   1136  O3' A   B  30      -1.395  -1.998  19.930  0.00  0.00    +0.000 OA
BRANCH11361139
ATOM   1137  C4' A   B  30      -0.927  -3.605  21.716  0.00  0.00    +0.000 C 
ATOM   1138  O4' A   B  30       0.179  -4.513  21.985  0.00  0.00    +0.000 OA
ATOM   1139  C3' A   B  30      -0.740  -3.219  20.258  0.00  0.00    +0.000 C 
ATOM   1140  C2' A   B  30       0.776  -3.135  20.148  0.00  0.00    +0.000 C 
ATOM   1141  C1' A   B  30       1.212  -4.303  21.039  0.00  0.00    +0.000 C 
BRANCH11411142
ATOM   1142  N9  A   B  30       1.419  -5.545  20.280  0.00  0.00    +0.000 N 
ATOM   1143  C8  A   B  30       0.581  -6.631  20.181  0.00  0.00    +0.000 A 
ATOM   1144  N7  A   B  30       1.054  -7.593  19.423  0.00  0.00    +0.000 NA
ATOM   1145  C5  A   B  30       2.284  -7.111  18.993  0.00  0.00    +0.000 A 
ATOM   1146  C6  A   B  30       3.282  -7.653  18.163  0.00  0.00    +0.000 A 
ATOM   1147  N1  A   B  30       4.385  -6.910  17.935  0.00  0.00    +0.000 NA
ATOM   1148  C2  A   B  30       4.477  -5.702  18.502  0.00  0.00    +0.000 A 
ATOM   1149  N3  A   B  30       3.610  -5.083  19.304  0.00  0.00    +0.000 NA
ATOM   1150  C4  A   B  30       2.520  -5.849  19.511  0.00  0.00    +0.000 A 
BRANCH11461151
ATOM   1151  N6  A   B  30       3.188  -8.862  17.592  0.00  0.00    +0.000 N 
ATOM   1152  H   A   B  30       3.917  -9.194  17.019  0.00  0.00    +0.000 HD
ATOM   1153  H   A   B  30       2.390  -9.418  17.746  0.00  0.00    +0.000 HD
ENDBRANCH11461151
ENDBRANCH11411142
BRANCH11401154
ATOM   1154  O2' A   B  30       1.278  -1.923  20.690  0.00  0.00    +0.000 OA
ATOM   1155  H   A   B  30       0.990  -1.838  21.612  0.00  0.00    +0.000 HD
ENDBRANCH11401154
BRANCH11371156
ATOM   1156  C5' A   B  30      -2.240  -4.279  22.059  0.00  0.00    +0.000 C 
BRANCH11561157
ATOM   1157  O5' A   B  30      -2.391  -5.504  21.343  0.00  0.00    +0.000 OA
BRANCH11571158
ATOM   1158  P   A   B  30      -3.552  -6.543  21.725  0.00  0.00    +0.000 P 
ATOM   1159  OP2 A   B  30      -3.470  -7.686  20.779  0.00  0.00    +0.000 OA
BRANCH11581160
ATOM   1160  OP1 A   B  30      -4.824  -5.787  21.859  0.00  0.00    +0.000 OA
ATOM   1161  H   A   B  30      -5.105  -5.470  20.987  0.00  0.00    +0.000 HD
ENDBRANCH11581160
BRANCH11581162
ATOM   1162  O3' A   B  29      -3.132  -7.043  23.183  0.00  0.00    +0.000 OA
BRANCH11621165
ATOM   1163  C4' A   B  29      -2.221  -8.834  24.584  0.00  0.00    +0.000 C 
ATOM   1164  O4' A   B  29      -0.872  -9.313  24.848  0.00  0.00    +0.000 OA
ATOM   1165  C3' A   B  29      -2.063  -7.968  23.345  0.00  0.00    +0.000 C 
ATOM   1166  C2' A   B  29      -0.720  -7.295  23.605  0.00  0.00    +0.000 C 
ATOM   1167  C1' A   B  29       0.071  -8.439  24.249  0.00  0.00    +0.000 C 
BRANCH11671168
ATOM   1168  N9  A   B  29       0.859  -9.194  23.263  0.00  0.00    +0.000 N 
ATOM   1169  C8  A   B  29       0.588 -10.426  22.719  0.00  0.00    +0.000 A 
ATOM   1170  N7  A   B  29       1.495 -10.833  21.860  0.00  0.00    +0.000 NA
ATOM   1171  C5  A   B  29       2.423  -9.800  21.834  0.00  0.00    +0.000 A 
ATOM   1172  C6  A   B  29       3.621  -9.616  21.122  0.00  0.00    +0.000 A 
ATOM   1173  N1  A   B  29       4.305  -8.470  21.326  0.00  0.00    +0.000 NA
ATOM   1174  C2  A   B  29       3.814  -7.572  22.187  0.00  0.00    +0.000 A 
ATOM   1175  N3  A   B  29       2.699  -7.630  22.918  0.00  0.00    +0.000 NA
ATOM   1176  C4  A   B  29       2.042  -8.783  22.693  0.00  0.00    +0.000 A 
BRANCH11721177
ATOM   1177  N6  A   B  29       4.113 -10.514  20.256  0.00  0.00    +0.000 N 
ATOM   1178  H   A   B  29       4.958 -10.332  19.785  0.00  0.00    +0.000 HD
ATOM   1179  H   A   B  29       3.629 -11.356  20.091  0.00  0.00    +0.000 HD
ENDBRANCH11721177
ENDBRANCH11671168
BRANCH11661180
ATOM   1180  O2' A   B  29      -0.836  -6.227  24.534  0.00  0.00    +0.000 OA
ATOM   1181  H   A   B  29      -1.228  -6.556  25.358  0.00  0.00    +0.000 HD
ENDBRANCH11661180
BRANCH11631182
ATOM   1182  C5' A   B  29      -3.168 -10.009  24.460  0.00  0.00    +0.000 C 
BRANCH11821183
ATOM   1183  O5' A   B  29      -2.755 -10.900  23.425  0.00  0.00    +0.000 OA
BRANCH11831184
ATOM   1184  P   A   B  29      -3.457 -12.332  23.247  0.00  0.00    +0.000 P 
ATOM   1185  OP2 A   B  29      -2.860 -12.987  22.052  0.00  0.00    +0.000 OA
BRANCH11841186
ATOM   1186  OP1 A   B  29      -4.929 -12.141  23.322  0.00  0.00    +0.000 OA
ATOM   1187  H   A   B  29      -5.233 -11.657  22.538  0.00  0.00    +0.000 HD
ENDBRANCH11841186
BRANCH11841188
ATOM   1188  O3' U   B  28      -2.990 -13.134  24.557  0.00  0.00    +0.000 OA
BRANCH11881191
ATOM   1189  C4' U   B  28      -1.535 -14.847  25.539  0.00  0.00    +0.000 C 
ATOM   1190  O4' U   B  28      -0.132 -14.867  25.931  0.00  0.00    +0.000 OA
ATOM   1191  C3' U   B  28      -1.651 -13.600  24.680  0.00  0.00    +0.000 C 
ATOM   1192  C2' U   B  28      -0.737 -12.627  25.419  0.00  0.00    +0.000 C 
ATOM   1193  C1' U   B  28       0.408 -13.559  25.839  0.00  0.00    +0.000 C 
BRANCH11931194
ATOM   1194  N1  U   B  28       1.516 -13.558  24.853  0.00  0.00    +0.000 N 
ATOM   1195  C2  U   B  28       2.409 -12.501  24.903  0.00  0.00    +0.000 A 
ATOM   1196  O2  U   B  28       2.319 -11.594  25.715  0.00  0.00    +0.000 OA
ATOM   1197  N3  U   B  28       3.418 -12.542  23.964  0.00  0.00    +0.000 N 
ATOM   1198  C4  U   B  28       3.615 -13.511  23.001  0.00  0.00    +0.000 A 
ATOM   1199  O4  U   B  28       4.567 -13.410  22.226  0.00  0.00    +0.000 OA
ATOM   1200  C5  U   B  28       2.648 -14.568  23.014  0.00  0.00    +0.000 A 
ATOM   1201  C6  U   B  28       1.655 -14.557  23.915  0.00  0.00    +0.000 A 
ATOM   1202  H   U   B  28       4.067 -11.802  23.982  0.00  0.00    +0.000 HD
ENDBRANCH11931194
BRANCH11921203
ATOM   1203  O2' U   B  28      -1.355 -12.099  26.577  0.00  0.00    +0.000 OA
ATOM   1204  H   U   B  28      -1.634 -12.826  27.155  0.00  0.00    +0.000 HD
ENDBRANCH11921203
BRANCH11891205
ATOM   1205  C5' U   B  28      -1.905 -16.154  24.871  0.00  0.00    +0.000 C 
BRANCH12051206
ATOM   1206  O5' U   B  28      -1.107 -16.394  23.716  0.00  0.00    +0.000 OA
BRANCH12061207
ATOM   1207  P   U   B  28      -1.124 -17.818  22.985  0.00  0.00    +0.000 P 
ATOM   1208  OP2 U   B  28      -0.239 -17.734  21.794  0.00  0.00    +0.000 OA
BRANCH12071209
ATOM   1209  OP1 U   B  28      -2.536 -18.244  22.820  0.00  0.00    +0.000 OA
ATOM   1210  H   U   B  28      -2.975 -17.666  22.176  0.00  0.00    +0.000 HD
ENDBRANCH12071209
BRANCH12071211
ATOM   1211  O3' U   B  27      -0.424 -18.794  24.058  0.00  0.00    +0.000 OA
BRANCH12111214
ATOM   1212  C4' U   B  27       1.573 -20.064  24.693  0.00  0.00    +0.000 C 
ATOM   1213  O4' U   B  27       2.811 -19.718  25.376  0.00  0.00    +0.000 OA
ATOM   1214  C3' U   B  27       0.978 -18.722  24.310  0.00  0.00    +0.000 C 
ATOM   1215  C2' U   B  27       1.329 -17.865  25.520  0.00  0.00    +0.000 C 
ATOM   1216  C1' U   B  27       2.733 -18.386  25.858  0.00  0.00    +0.000 C 
BRANCH12161217
ATOM   1217  N1  U   B  27       3.799 -17.580  25.222  0.00  0.00    +0.000 N 
ATOM   1218  C2  U   B  27       4.145 -16.382  25.828  0.00  0.00    +0.000 A 
ATOM   1219  O2  U   B  27       3.609 -15.974  26.845  0.00  0.00    +0.000 OA
ATOM   1220  N3  U   B  27       5.143 -15.675  25.196  0.00  0.00    +0.000 N 
ATOM   1221  C4  U   B  27       5.815 -16.034  24.045  0.00  0.00    +0.000 A 
ATOM   1222  O4  U   B  27       6.690 -15.292  23.597  0.00  0.00    +0.000 OA
ATOM   1223  C5  U   B  27       5.399 -17.282  23.480  0.00  0.00    +0.000 A 
ATOM   1224  C6  U   B  27       4.431 -17.995  24.071  0.00  0.00    +0.000 A 
ATOM   1225  H   U   B  27       5.406 -14.821  25.610  0.00  0.00    +0.000 HD
ENDBRANCH12161217
BRANCH12151226
ATOM   1226  O2' U   B  27       0.463 -18.118  26.613  0.00  0.00    +0.000 OA
ATOM   1227  H   U   B  27       0.487 -19.062  26.833  0.00  0.00    +0.000 HD
ENDBRANCH12151226
BRANCH12121228
ATOM   1228  C5' U   B  27       1.864 -21.009  23.548  0.00  0.00    +0.000 C 
BRANCH12281229
ATOM   1229  O5' U   B  27       2.726 -20.408  22.584  0.00  0.00    +0.000 OA
BRANCH12291230
ATOM   1230  P   U   B  27       3.327 -21.258  21.370  0.00  0.00    +0.000 P 
ATOM   1231  OP2 U   B  27       4.141 -20.343  20.529  0.00  0.00    +0.000 OA
BRANCH12301232
ATOM   1232  OP1 U   B  27       2.223 -22.037  20.753  0.00  0.00    +0.000 OA
ATOM   1233  H   U   B  27       2.570 -22.560  20.013  0.00  0.00    +0.000 HD
ENDBRANCH12301232
BRANCH12301234
ATOM   1234  O3' U   B  26       4.331 -22.293  22.097  0.00  0.00    +0.000 OA
BRANCH12341237
ATOM   1235  C4' U   B  26       6.637 -22.929  22.618  0.00  0.00    +0.000 C 
ATOM   1236  O4' U   B  26       7.601 -22.493  23.616  0.00  0.00    +0.000 OA
ATOM   1237  C3' U   B  26       5.574 -21.848  22.635  0.00  0.00    +0.000 C 
ATOM   1238  C2' U   B  26       5.498 -21.506  24.117  0.00  0.00    +0.000 C 
ATOM   1239  C1' U   B  26       6.976 -21.601  24.524  0.00  0.00    +0.000 C 
BRANCH12391240
ATOM   1240  N1  U   B  26       7.660 -20.290  24.462  0.00  0.00    +0.000 N 
ATOM   1241  C2  U   B  26       7.466 -19.416  25.520  0.00  0.00    +0.000 A 
ATOM   1242  O2  U   B  26       6.761 -19.682  26.478  0.00  0.00    +0.000 OA
ATOM   1243  N3  U   B  26       8.128 -18.216  25.413  0.00  0.00    +0.000 N 
ATOM   1244  C4  U   B  26       8.946 -17.808  24.379  0.00  0.00    +0.000 A 
ATOM   1245  O4  U   B  26       9.472 -16.696  24.427  0.00  0.00    +0.000 OA
ATOM   1246  C5  U   B  26       9.094 -18.765  23.327  0.00  0.00    +0.000 A 
ATOM   1247  C6  U   B  26       8.462 -19.944  23.401  0.00  0.00    +0.000 A 
ATOM   1248  H   U   B  26       8.005 -17.579  26.154  0.00  0.00    +0.000 HD
ENDBRANCH12391240
BRANCH12381249
ATOM   1249  O2' U   B  26       4.755 -22.473  24.843  0.00  0.00    +0.000 OA
ATOM   1250  H   U   B  26       5.145 -23.351  24.705  0.00  0.00    +0.000 HD
ENDBRANCH12381249
BRANCH12351251
ATOM   1251  C5' U   B  26       7.331 -23.154  21.294  0.00  0.00    +0.000 C 
BRANCH12511252
ATOM   1252  O5' U   B  26       7.942 -21.957  20.819  0.00  0.00    +0.000 OA
BRANCH12521253
ATOM   1253  P   U   B  26       8.912 -21.971  19.552  0.00  0.00    +0.000 P 
ATOM   1254  OP1 U   B  26       8.258 -22.752  18.473  0.00  0.00    +0.000 OA
BRANCH12531255
ATOM   1255  OP2 U   B  26       9.344 -20.574  19.288  0.00  0.00    +0.000 OA
ATOM   1256  H   U   B  26       9.936 -20.558  18.520  0.00  0.00    +0.000 HD
ENDBRANCH12531255
BRANCH12531257
ATOM   1257  O3' U   B  25      10.199 -22.802  20.063  0.00  0.00    +0.000 OA
BRANCH12571260
ATOM   1258  C4' U   B  25      12.525 -22.738  20.818  0.00  0.00    +0.000 C 
ATOM   1259  O4' U   B  25      13.163 -22.462  22.097  0.00  0.00    +0.000 OA
ATOM   1260  C3' U   B  25      11.111 -22.222  20.992  0.00  0.00    +0.000 C 
ATOM   1261  C2' U   B  25      10.814 -22.596  22.438  0.00  0.00    +0.000 C 
ATOM   1262  C1' U   B  25      12.172 -22.325  23.101  0.00  0.00    +0.000 C 
BRANCH12621263
ATOM   1263  N1  U   B  25      12.256 -20.963  23.673  0.00  0.00    +0.000 N 
ATOM   1264  C2  U   B  25      11.681 -20.756  24.916  0.00  0.00    +0.000 A 
ATOM   1265  O2  U   B  25      11.118 -21.638  25.540  0.00  0.00    +0.000 OA
ATOM   1266  N3  U   B  25      11.791 -19.475  25.403  0.00  0.00    +0.000 N 
ATOM   1267  C4  U   B  25      12.401 -18.403  24.787  0.00  0.00    +0.000 A 
ATOM   1268  O4  U   B  25      12.419 -17.308  25.350  0.00  0.00    +0.000 OA
ATOM   1269  C5  U   B  25      12.967 -18.698  23.509  0.00  0.00    +0.000 A 
ATOM   1270  C6  U   B  25      12.877 -19.936  23.009  0.00  0.00    +0.000 A 
ATOM   1271  H   U   B  25      11.391 -19.305  26.286  0.00  0.00    +0.000 HD
ENDBRANCH12621263
BRANCH12611272
ATOM   1272  O2' U   B  25      10.503 -23.974  22.572  0.00  0.00    +0.000 OA
ATOM   1273  H   U   B  25      11.230 -24.506  22.213  0.00  0.00    +0.000 HD
ENDBRANCH12611272
BRANCH12581274
ATOM   1274  C5' U   B  25      13.324 -22.108  19.704  0.00  0.00    +0.000 C 
BRANCH12741275
ATOM   1275  O5' U   B  25      13.408 -20.695  19.862  0.00  0.00    +0.000 OA
BRANCH12751276
ATOM   1276  P   U   B  25      14.413 -19.822  18.984  0.00  0.00    +0.000 P 
ATOM   1277  OP1 U   B  25      14.267 -20.231  17.565  0.00  0.00    +0.000 OA
BRANCH12761278
ATOM   1278  OP2 U   B  25      14.231 -18.396  19.360  0.00  0.00    +0.000 OA
ATOM   1279  H   U   B  25      14.834 -17.844  18.837  0.00  0.00    +0.000 HD
ENDBRANCH12761278
BRANCH12761280
ATOM   1280  O3' U   B  24      15.877 -20.298  19.483  0.00  0.00    +0.000 OA
BRANCH12801283
ATOM   1281  C4' U   B  24      17.853 -19.706  20.792  0.00  0.00    +0.000 C 
ATOM   1282  O4' U   B  24      18.205 -19.833  22.198  0.00  0.00    +0.000 OA
ATOM   1283  C3' U   B  24      16.353 -19.908  20.768  0.00  0.00    +0.000 C 
ATOM   1284  C2' U   B  24      16.159 -20.980  21.830  0.00  0.00    +0.000 C 
ATOM   1285  C1' U   B  24      17.196 -20.558  22.878  0.00  0.00    +0.000 C 
BRANCH12851286
ATOM   1286  N1  U   B  24      16.618 -19.696  23.934  0.00  0.00    +0.000 N 
ATOM   1287  C2  U   B  24      15.913 -20.315  24.953  0.00  0.00    +0.000 A 
ATOM   1288  O2  U   B  24      15.746 -21.521  25.009  0.00  0.00    +0.000 OA
ATOM   1289  N3  U   B  24      15.405 -19.464  25.909  0.00  0.00    +0.000 N 
ATOM   1290  C4  U   B  24      15.527 -18.090  25.949  0.00  0.00    +0.000 A 
ATOM   1291  O4  U   B  24      15.015 -17.462  26.876  0.00  0.00    +0.000 OA
ATOM   1292  C5  U   B  24      16.266 -17.530  24.862  0.00  0.00    +0.000 A 
ATOM   1293  C6  U   B  24      16.773 -18.333  23.915  0.00  0.00    +0.000 A 
ATOM   1294  H   U   B  24      14.900 -19.881  26.644  0.00  0.00    +0.000 HD
ENDBRANCH12851286
BRANCH12841295
ATOM   1295  O2' U   B  24      16.493 -22.267  21.346  0.00  0.00    +0.000 OA
ATOM   1296  H   U   B  24      17.405 -22.262  21.017  0.00  0.00    +0.000 HD
ENDBRANCH12841295
BRANCH12811297
ATOM   1297  C5' U   B  24      18.348 -18.383  20.259  0.00  0.00    +0.000 C 
BRANCH12971298
ATOM   1298  O5' U   B  24      17.730 -17.294  20.934  0.00  0.00    +0.000 OA
BRANCH12981299
ATOM   1299  P   U   B  24      18.188 -15.791  20.669  0.00  0.00    +0.000 P 
ATOM   1300  OP1 U   B  24      18.282 -15.584  19.203  0.00  0.00    +0.000 OA
BRANCH12991301
ATOM   1301  OP2 U   B  24      17.328 -14.900  21.484  0.00  0.00    +0.000 OA
ATOM   1302  H   U   B  24      16.421 -14.922  21.140  0.00  0.00    +0.000 HD
ENDBRANCH12991301
BRANCH12991303
ATOM   1303  O3' U   B  23      19.691 -15.736  21.263  0.00  0.00    +0.000 OA
BRANCH13031306
ATOM   1304  C4' U   B  23      21.133 -15.004  23.096  0.00  0.00    +0.000 C 
ATOM   1305  O4' U   B  23      21.444 -15.548  24.409  0.00  0.00    +0.000 OA
ATOM   1306  C3' U   B  23      19.893 -15.765  22.671  0.00  0.00    +0.000 C 
ATOM   1307  C2' U   B  23      20.183 -17.157  23.205  0.00  0.00    +0.000 C 
ATOM   1308  C1' U   B  23      20.866 -16.834  24.537  0.00  0.00    +0.000 C 
BRANCH13081309
ATOM   1309  N1  U   B  23      19.914 -16.827  25.670  0.00  0.00    +0.000 N 
ATOM   1310  C2  U   B  23      19.522 -18.052  26.184  0.00  0.00    +0.000 A 
ATOM   1311  O2  U   B  23      19.918 -19.113  25.742  0.00  0.00    +0.000 OA
ATOM   1312  N3  U   B  23      18.639 -17.988  27.238  0.00  0.00    +0.000 N 
ATOM   1313  C4  U   B  23      18.120 -16.849  27.820  0.00  0.00    +0.000 A 
ATOM   1314  O4  U   B  23      17.335 -16.952  28.763  0.00  0.00    +0.000 OA
ATOM   1315  C5  U   B  23      18.572 -15.627  27.231  0.00  0.00    +0.000 A 
ATOM   1316  C6  U   B  23      19.432 -15.657  26.202  0.00  0.00    +0.000 A 
ATOM   1317  H   U   B  23      18.346 -18.848  27.618  0.00  0.00    +0.000 HD
ENDBRANCH13081309
BRANCH13071318
ATOM   1318  O2' U   B  23      21.092 -17.859  22.377  0.00  0.00    +0.000 OA
ATOM   1319  H   U   B  23      21.908 -17.343  22.283  0.00  0.00    +0.000 HD
ENDBRANCH13071318
BRANCH13041320
ATOM   1320  C5' U   B  23      20.987 -13.505  23.186  0.00  0.00    +0.000 C 
BRANCH13201321
ATOM   1321  O5' U   B  23      19.906 -13.141  24.035  0.00  0.00    +0.000 OA
BRANCH13211322
ATOM   1322  P   U   B  23      19.625 -11.616  24.402  0.00  0.00    +0.000 P 
ATOM   1323  OP1 U   B  23      19.645 -10.826  23.145  0.00  0.00    +0.000 OA
BRANCH13221324
ATOM   1324  OP2 U   B  23      18.430 -11.571  25.282  0.00  0.00    +0.000 OA
ATOM   1325  H   U   B  23      17.644 -11.827  24.774  0.00  0.00    +0.000 HD
ENDBRANCH13221324
BRANCH13221326
ATOM   1326  O3' C   B  22      20.916 -11.188  25.267  0.00  0.00    +0.000 OA
BRANCH13261329
ATOM   1327  C4' C   B  22      21.839 -10.683  27.476  0.00  0.00    +0.000 C 
ATOM   1328  O4' C   B  22      22.274 -11.509  28.593  0.00  0.00    +0.000 OA
ATOM   1329  C3' C   B  22      21.049 -11.641  26.608  0.00  0.00    +0.000 C 
ATOM   1330  C2' C   B  22      21.875 -12.916  26.729  0.00  0.00    +0.000 C 
ATOM   1331  C1' C   B  22      22.281 -12.869  28.204  0.00  0.00    +0.000 C 
BRANCH13311332
ATOM   1332  N1  C   B  22      21.338 -13.626  29.063  0.00  0.00    +0.000 N 
ATOM   1333  C2  C   B  22      21.468 -15.018  29.127  0.00  0.00    +0.000 A 
ATOM   1334  O2  C   B  22      22.361 -15.571  28.473  0.00  0.00    +0.000 OA
ATOM   1335  N3  C   B  22      20.613 -15.730  29.903  0.00  0.00    +0.000 NA
ATOM   1336  C4  C   B  22      19.658 -15.107  30.596  0.00  0.00    +0.000 A 
ATOM   1337  N4  C   B  22      18.840 -15.850  31.345  0.00  0.00    +0.000 N 
ATOM   1338  C5  C   B  22      19.503 -13.694  30.547  0.00  0.00    +0.000 A 
ATOM   1339  C6  C   B  22      20.355 -13.000  29.776  0.00  0.00    +0.000 A 
ATOM   1340  H   C   B  22      18.952 -16.828  31.375  0.00  0.00    +0.000 HD
ATOM   1341  H   C   B  22      18.125 -15.420  31.867  0.00  0.00    +0.000 HD
ENDBRANCH13311332
BRANCH13301342
ATOM   1342  O2' C   B  22      23.040 -12.869  25.927  0.00  0.00    +0.000 OA
ATOM   1343  H   C   B  22      23.565 -12.089  26.165  0.00  0.00    +0.000 HD
ENDBRANCH13301342
BRANCH13271344
ATOM   1344  C5' C   B  22      21.082  -9.482  27.986  0.00  0.00    +0.000 C 
BRANCH13441345
ATOM   1345  O5' C   B  22      19.957  -9.870  28.764  0.00  0.00    +0.000 OA
BRANCH13451346
ATOM   1346  P   C   B  22      19.148  -8.804  29.629  0.00  0.00    +0.000 P 
ATOM   1347  OP1 C   B  22      18.856  -7.633  28.763  0.00  0.00    +0.000 OA
BRANCH13461348
ATOM   1348  OP2 C   B  22      18.032  -9.520  30.301  0.00  0.00    +0.000 OA
ATOM   1349  H   C   B  22      17.392  -9.819  29.636  0.00  0.00    +0.000 HD
ENDBRANCH13461348
BRANCH13461350
ATOM   1350  O3' A   B  21      20.190  -8.321  30.747  0.00  0.00    +0.000 OA
BRANCH13501353
ATOM   1351  C4' A   B  21      20.904  -8.544  33.085  0.00  0.00    +0.000 C 
ATOM   1352  O4' A   B  21      21.744  -9.504  33.780  0.00  0.00    +0.000 OA
ATOM   1353  C3' A   B  21      20.595  -9.225  31.762  0.00  0.00    +0.000 C 
ATOM   1354  C2' A   B  21      21.918  -9.913  31.456  0.00  0.00    +0.000 C 
ATOM   1355  C1' A   B  21      22.322 -10.396  32.847  0.00  0.00    +0.000 C 
BRANCH13551356
ATOM   1356  N9  A   B  21      21.819 -11.753  33.112  0.00  0.00    +0.000 N 
ATOM   1357  C8  A   B  21      20.715 -12.127  33.837  0.00  0.00    +0.000 A 
ATOM   1358  N7  A   B  21      20.525 -13.428  33.879  0.00  0.00    +0.000 NA
ATOM   1359  C5  A   B  21      21.574 -13.941  33.127  0.00  0.00    +0.000 A 
ATOM   1360  C6  A   B  21      21.942 -15.254  32.786  0.00  0.00    +0.000 A 
ATOM   1361  N6  A   B  21      21.258 -16.338  33.176  0.00  0.00    +0.000 N 
ATOM   1362  N1  A   B  21      23.042 -15.418  32.023  0.00  0.00    +0.000 NA
ATOM   1363  C2  A   B  21      23.719 -14.332  31.629  0.00  0.00    +0.000 A 
ATOM   1364  N3  A   B  21      23.475 -13.048  31.887  0.00  0.00    +0.000 NA
ATOM   1365  C4  A   B  21      22.374 -12.920  32.648  0.00  0.00    +0.000 A 
ATOM   1366  H   A   B  21      21.562 -17.235  32.907  0.00  0.00    +0.000 HD
ATOM   1367  H   A   B  21      20.451 -16.238  33.731  0.00  0.00    +0.000 HD
ENDBRANCH13551356
BRANCH13541368
ATOM   1368  O2' A   B  21      22.891  -9.004  30.979  0.00  0.00    +0.000 OA
ATOM   1369  H   A   B  21      23.010  -8.289  31.624  0.00  0.00    +0.000 HD
ENDBRANCH13541368
BRANCH13511370
ATOM   1370  C5' A   B  21      19.709  -8.196  33.942  0.00  0.00    +0.000 C 
BRANCH13701371
ATOM   1371  O5' A   B  21      18.971  -9.363  34.298  0.00  0.00    +0.000 OA
BRANCH13711372
ATOM   1372  P   A   B  21      17.938  -9.339  35.517  0.00  0.00    +0.000 P 
ATOM   1373  OP1 A   B  21      17.082  -8.136  35.378  0.00  0.00    +0.000 OA
BRANCH13721374
ATOM   1374  OP2 A   B  21      17.306 -10.682  35.604  0.00  0.00    +0.000 OA
ATOM   1375  H   A   B  21      16.741 -10.824  34.829  0.00  0.00    +0.000 HD
ENDBRANCH13721374
BRANCH13721376
ATOM   1376  O3' A   B  20      18.868  -9.114  36.799  0.00  0.00    +0.000 OA
BRANCH13761379
ATOM   1377  C4' A   B  20      19.762 -10.171  38.818  0.00  0.00    +0.000 C 
ATOM   1378  O4' A   B  20      20.940 -10.977  39.087  0.00  0.00    +0.000 OA
ATOM   1379  C3' A   B  20      19.642 -10.195  37.305  0.00  0.00    +0.000 C 
ATOM   1380  C2' A   B  20      21.101 -10.149  36.872  0.00  0.00    +0.000 C 
ATOM   1381  C1' A   B  20      21.754 -11.039  37.929  0.00  0.00    +0.000 C 
BRANCH13811382
ATOM   1382  N9  A   B  20      21.843 -12.442  37.494  0.00  0.00    +0.000 N 
ATOM   1383  C8  A   B  20      21.004 -13.483  37.808  0.00  0.00    +0.000 A 
ATOM   1384  N7  A   B  20      21.353 -14.625  37.259  0.00  0.00    +0.000 NA
ATOM   1385  C5  A   B  20      22.496 -14.314  36.534  0.00  0.00    +0.000 A 
ATOM   1386  C6  A   B  20      23.349 -15.088  35.729  0.00  0.00    +0.000 A 
ATOM   1387  N1  A   B  20      24.399 -14.471  35.149  0.00  0.00    +0.000 NA
ATOM   1388  C2  A   B  20      24.576 -13.162  35.366  0.00  0.00    +0.000 A 
ATOM   1389  N3  A   B  20      23.847 -12.324  36.105  0.00  0.00    +0.000 NA
ATOM   1390  C4  A   B  20      22.807 -12.972  36.669  0.00  0.00    +0.000 A 
BRANCH13861391
ATOM   1391  N6  A   B  20      23.168 -16.398  35.507  0.00  0.00    +0.000 N 
ATOM   1392  H   A   B  20      23.798 -16.892  34.933  0.00  0.00    +0.000 HD
ATOM   1393  H   A   B  20      22.405 -16.866  35.918  0.00  0.00    +0.000 HD
ENDBRANCH13861391
ENDBRANCH13811382
BRANCH13801394
ATOM   1394  O2' A   B  20      21.637  -8.841  36.967  0.00  0.00    +0.000 OA
ATOM   1395  H   A   B  20      21.529  -8.513  37.873  0.00  0.00    +0.000 HD
ENDBRANCH13801394
BRANCH13771396
ATOM   1396  C5' A   B  20      18.577 -10.720  39.577  0.00  0.00    +0.000 C 
BRANCH13961397
ATOM   1397  O5' A   B  20      18.282 -12.056  39.177  0.00  0.00    +0.000 OA
BRANCH13971398
ATOM   1398  P   A   B  20      17.228 -12.941  39.993  0.00  0.00    +0.000 P 
ATOM   1399  OP2 A   B  20      17.141 -14.274  39.334  0.00  0.00    +0.000 OA
BRANCH13981400
ATOM   1400  OP1 A   B  20      15.996 -12.138  40.188  0.00  0.00    +0.000 OA
ATOM   1401  H   A   B  20      15.549 -12.020  39.335  0.00  0.00    +0.000 HD
ENDBRANCH13981400
BRANCH13981402
ATOM   1402  O3' A   B  19      17.925 -13.108  41.415  0.00  0.00    +0.000 OA
BRANCH14021405
ATOM   1403  C4' A   B  19      19.051 -14.596  42.988  0.00  0.00    +0.000 C 
ATOM   1404  O4' A   B  19      20.417 -15.070  43.115  0.00  0.00    +0.000 OA
ATOM   1405  C3' A   B  19      18.993 -14.032  41.581  0.00  0.00    +0.000 C 
ATOM   1406  C2' A   B  19      20.373 -13.400  41.436  0.00  0.00    +0.000 C 
ATOM   1407  C1' A   B  19      21.244 -14.418  42.169  0.00  0.00    +0.000 C 
BRANCH14071408
ATOM   1408  N9  A   B  19      21.807 -15.429  41.263  0.00  0.00    +0.000 N 
ATOM   1409  C8  A   B  19      21.395 -16.724  41.074  0.00  0.00    +0.000 A 
ATOM   1410  N7  A   B  19      22.108 -17.383  40.187  0.00  0.00    +0.000 NA
ATOM   1411  C5  A   B  19      23.052 -16.456  39.763  0.00  0.00    +0.000 A 
ATOM   1412  C6  A   B  19      24.103 -16.532  38.833  0.00  0.00    +0.000 A 
ATOM   1413  N1  A   B  19      24.857 -15.427  38.644  0.00  0.00    +0.000 NA
ATOM   1414  C2  A   B  19      24.568 -14.322  39.348  0.00  0.00    +0.000 A 
ATOM   1415  N3  A   B  19      23.609 -14.126  40.252  0.00  0.00    +0.000 NA
ATOM   1416  C4  A   B  19      22.877 -15.247  40.416  0.00  0.00    +0.000 A 
BRANCH14121417
ATOM   1417  N6  A   B  19      24.389 -17.635  38.126  0.00  0.00    +0.000 N 
ATOM   1418  H   A   B  19      25.138 -17.630  37.488  0.00  0.00    +0.000 HD
ATOM   1419  H   A   B  19      23.849 -18.450  38.245  0.00  0.00    +0.000 HD
ENDBRANCH14121417
ENDBRANCH14071408
BRANCH14061420
ATOM   1420  O2' A   B  19      20.452 -12.150  42.098  0.00  0.00    +0.000 OA
ATOM   1421  H   A   B  19      20.214 -12.263  43.032  0.00  0.00    +0.000 HD
ENDBRANCH14061420
BRANCH14031422
ATOM   1422  C5' A   B  19      18.082 -15.720  43.279  0.00  0.00    +0.000 C 
BRANCH14221423
ATOM   1423  O5' A   B  19      18.229 -16.787  42.345  0.00  0.00    +0.000 OA
BRANCH14231424
ATOM   1424  P   A   B  19      17.321 -18.102  42.453  0.00  0.00    +0.000 P 
ATOM   1425  OP2 A   B  19      17.685 -19.010  41.331  0.00  0.00    +0.000 OA
BRANCH14241426
ATOM   1426  OP1 A   B  19      15.909 -17.682  42.629  0.00  0.00    +0.000 OA
ATOM   1427  H   A   B  19      15.592 -17.265  41.813  0.00  0.00    +0.000 HD
ENDBRANCH14241426
BRANCH14241428
ATOM   1428  O3' G   B  18      17.805 -18.780  43.808  0.00  0.00    +0.000 OA
BRANCH14281431
ATOM   1429  C4' G   B  18      19.102 -20.546  44.899  0.00  0.00    +0.000 C 
ATOM   1430  O4' G   B  18      20.509 -20.686  45.242  0.00  0.00    +0.000 OA
ATOM   1431  C3' G   B  18      19.080 -19.403  43.893  0.00  0.00    +0.000 C 
ATOM   1432  C2' G   B  18      20.177 -18.491  44.424  0.00  0.00    +0.000 C 
ATOM   1433  C1' G   B  18      21.212 -19.518  44.884  0.00  0.00    +0.000 C 
BRANCH14331434
ATOM   1434  N9  G   B  18      22.152 -19.855  43.805  0.00  0.00    +0.000 N 
ATOM   1435  C8  G   B  18      22.263 -21.053  43.134  0.00  0.00    +0.000 A 
ATOM   1436  N7  G   B  18      23.192 -21.039  42.218  0.00  0.00    +0.000 NA
ATOM   1437  C5  G   B  18      23.730 -19.762  42.291  0.00  0.00    +0.000 A 
ATOM   1438  C6  G   B  18      24.775 -19.162  41.546  0.00  0.00    +0.000 A 
ATOM   1439  O6  G   B  18      25.457 -19.655  40.637  0.00  0.00    +0.000 OA
ATOM   1440  N1  G   B  18      25.004 -17.842  41.938  0.00  0.00    +0.000 NA
ATOM   1441  C2  G   B  18      24.309 -17.188  42.926  0.00  0.00    +0.000 A 
ATOM   1442  N2  G   B  18      24.668 -15.914  43.169  0.00  0.00    +0.000 N 
ATOM   1443  N3  G   B  18      23.331 -17.735  43.635  0.00  0.00    +0.000 N 
ATOM   1444  C4  G   B  18      23.096 -19.017  43.267  0.00  0.00    +0.000 A 
ATOM   1445  H   G   B  18      25.393 -15.499  42.648  0.00  0.00    +0.000 HD
ATOM   1446  H   G   B  18      24.206 -15.397  43.868  0.00  0.00    +0.000 HD
ATOM   1447  H   G   B  18      22.835 -17.265  44.344  0.00  0.00    +0.000 HD
ENDBRANCH14331434
BRANCH14321448
ATOM   1448  O2' G   B  18      19.732 -17.747  45.542  0.00  0.00    +0.000 OA
ATOM   1449  H   G   B  18      19.406 -18.354  46.225  0.00  0.00    +0.000 HD
ENDBRANCH14321448
BRANCH14291450
ATOM   1450  C5' G   B  18      18.560 -21.867  44.405  0.00  0.00    +0.000 C 
BRANCH14501451
ATOM   1451  O5' G   B  18      19.160 -22.957  45.098  0.00  0.00    +0.000 OA
BRANCH14511452
ATOM   1452  P   G   B  18      18.310 -24.225  45.549  0.00  0.00    +0.000 P 
ATOM   1453  OP1 G   B  18      16.957 -24.125  44.935  0.00  0.00    +0.000 OA
BRANCH14521454
ATOM   1454  OP2 G   B  18      19.130 -25.428  45.298  0.00  0.00    +0.000 OA
ATOM   1455  H   G   B  18      19.234 -25.555  44.342  0.00  0.00    +0.000 HD
ENDBRANCH14521454
BRANCH14521456
ATOM   1456  O3' C   B  17      18.181 -24.077  47.120  0.00  0.00    +0.000 OA
BRANCH14561459
ATOM   1457  C4' C   B  17      19.402 -23.888  49.230  0.00  0.00    +0.000 C 
ATOM   1458  O4' C   B  17      19.699 -22.777  50.114  0.00  0.00    +0.000 OA
ATOM   1459  C3' C   B  17      19.003 -23.227  47.922  0.00  0.00    +0.000 C 
ATOM   1460  C2' C   B  17      18.264 -21.979  48.399  0.00  0.00    +0.000 C 
ATOM   1461  C1' C   B  17      19.071 -21.600  49.643  0.00  0.00    +0.000 C 
BRANCH14611462
ATOM   1462  N1  C   B  17      20.105 -20.576  49.377  0.00  0.00    +0.000 N 
ATOM   1463  C2  C   B  17      19.716 -19.237  49.261  0.00  0.00    +0.000 A 
ATOM   1464  O2  C   B  17      18.515 -18.941  49.377  0.00  0.00    +0.000 OA
ATOM   1465  N3  C   B  17      20.663 -18.293  49.020  0.00  0.00    +0.000 NA
ATOM   1466  C4  C   B  17      21.946 -18.641  48.899  0.00  0.00    +0.000 A 
ATOM   1467  N4  C   B  17      22.839 -17.677  48.668  0.00  0.00    +0.000 N 
ATOM   1468  C5  C   B  17      22.367 -19.994  49.018  0.00  0.00    +0.000 A 
ATOM   1469  C6  C   B  17      21.421 -20.921  49.254  0.00  0.00    +0.000 A 
ATOM   1470  H   C   B  17      23.793 -17.902  48.574  0.00  0.00    +0.000 HD
ATOM   1471  H   C   B  17      22.544 -16.741  48.592  0.00  0.00    +0.000 HD
ENDBRANCH14611462
BRANCH14601472
ATOM   1472  O2' C   B  17      16.930 -22.271  48.775  0.00  0.00    +0.000 OA
ATOM   1473  H   C   B  17      16.930 -22.959  49.458  0.00  0.00    +0.000 HD
ENDBRANCH14601472
BRANCH14571474
ATOM   1474  C5' C   B  17      20.597 -24.815  49.165  0.00  0.00    +0.000 C 
BRANCH14741475
ATOM   1475  O5' C   B  17      21.757 -24.124  48.709  0.00  0.00    +0.000 OA
BRANCH14751476
ATOM   1476  P   C   B  17      23.184 -24.843  48.676  0.00  0.00    +0.000 P 
ATOM   1477  OP1 C   B  17      23.017 -26.181  48.067  0.00  0.00    +0.000 OA
BRANCH14761478
ATOM   1478  OP2 C   B  17      24.167 -23.887  48.099  0.00  0.00    +0.000 OA
ATOM   1479  H   C   B  17      23.969 -23.748  47.160  0.00  0.00    +0.000 HD
ENDBRANCH14761478
BRANCH14761480
ATOM   1480  O3' C   B  16      23.558 -25.033  50.218  0.00  0.00    +0.000 OA
BRANCH14801483
ATOM   1481  C4' C   B  16      24.949 -24.283  52.087  0.00  0.00    +0.000 C 
ATOM   1482  O4' C   B  16      24.783 -23.278  53.119  0.00  0.00    +0.000 OA
ATOM   1483  C3' C   B  16      23.896 -23.930  51.051  0.00  0.00    +0.000 C 
ATOM   1484  C2' C   B  16      22.730 -23.482  51.928  0.00  0.00    +0.000 C 
ATOM   1485  C1' C   B  16      23.464 -22.761  53.061  0.00  0.00    +0.000 C 
BRANCH14851486
ATOM   1486  N1  C   B  16      23.514 -21.296  52.883  0.00  0.00    +0.000 N 
ATOM   1487  C2  C   B  16      22.376 -20.541  53.163  0.00  0.00    +0.000 A 
ATOM   1488  O2  C   B  16      21.344 -21.111  53.553  0.00  0.00    +0.000 OA
ATOM   1489  N3  C   B  16      22.420 -19.193  53.002  0.00  0.00    +0.000 NA
ATOM   1490  C4  C   B  16      23.543 -18.608  52.581  0.00  0.00    +0.000 A 
ATOM   1491  N4  C   B  16      23.543 -17.285  52.437  0.00  0.00    +0.000 N 
ATOM   1492  C5  C   B  16      24.716 -19.354  52.290  0.00  0.00    +0.000 A 
ATOM   1493  C6  C   B  16      24.658 -20.686  52.457  0.00  0.00    +0.000 A 
ATOM   1494  H   C   B  16      24.356 -16.823  52.128  0.00  0.00    +0.000 HD
ATOM   1495  H   C   B  16      22.730 -16.768  52.639  0.00  0.00    +0.000 HD
ENDBRANCH14851486
BRANCH14841496
ATOM   1496  O2' C   B  16      22.010 -24.581  52.448  0.00  0.00    +0.000 OA
ATOM   1497  H   C   B  16      22.614 -25.160  52.940  0.00  0.00    +0.000 HD
ENDBRANCH14841496
BRANCH14811498
ATOM   1498  C5' C   B  16      26.378 -24.288  51.606  0.00  0.00    +0.000 C 
BRANCH14981499
ATOM   1499  O5' C   B  16      26.876 -22.967  51.397  0.00  0.00    +0.000 OA
BRANCH14991500
ATOM   1500  P   C   B  16      28.338 -22.567  51.939  0.00  0.00    +0.000 P 
ATOM   1501  OP2 C   B  16      29.259 -23.651  51.546  0.00  0.00    +0.000 OA
BRANCH15001502
ATOM   1502  OP1 C   B  16      28.212 -22.208  53.369  0.00  0.00    +0.000 OA
ATOM   1503  H   C   B  16      27.574 -21.484  53.466  0.00  0.00    +0.000 HD
ENDBRANCH15001502
BRANCH15001504
ATOM   1504  O3' U   B  15      28.682 -21.224  51.257  0.00  0.00    +0.000 OA
BRANCH15041507
ATOM   1505  C4' U   B  15      27.949 -19.606  49.600  0.00  0.00    +0.000 C 
ATOM   1506  O4' U   B  15      27.678 -19.657  48.178  0.00  0.00    +0.000 OA
ATOM   1507  C3' U   B  15      28.686 -20.898  49.871  0.00  0.00    +0.000 C 
ATOM   1508  C2' U   B  15      27.971 -21.886  48.942  0.00  0.00    +0.000 C 
ATOM   1509  C1' U   B  15      27.692 -21.001  47.727  0.00  0.00    +0.000 C 
BRANCH15091510
ATOM   1510  N1  U   B  15      28.694 -21.139  46.653  0.00  0.00    +0.000 N 
ATOM   1511  C2  U   B  15      28.513 -22.156  45.734  0.00  0.00    +0.000 A 
ATOM   1512  O2  U   B  15      27.574 -22.935  45.791  0.00  0.00    +0.000 OA
ATOM   1513  N3  U   B  15      29.474 -22.235  44.754  0.00  0.00    +0.000 N 
ATOM   1514  C4  U   B  15      30.571 -21.409  44.592  0.00  0.00    +0.000 A 
ATOM   1515  O4  U   B  15      31.341 -21.605  43.655  0.00  0.00    +0.000 OA
ATOM   1516  C5  U   B  15      30.688 -20.383  45.575  0.00  0.00    +0.000 A 
ATOM   1517  C6  U   B  15      29.767 -20.283  46.549  0.00  0.00    +0.000 A 
ATOM   1518  H   U   B  15      29.370 -22.959  44.095  0.00  0.00    +0.000 HD
ENDBRANCH15091510
BRANCH15081519
ATOM   1519  O2' U   B  15      26.737 -22.334  49.475  0.00  0.00    +0.000 OA
ATOM   1520  H   U   B  15      26.170 -21.570  49.663  0.00  0.00    +0.000 HD
ENDBRANCH15081519
BRANCH15051521
ATOM   1521  C5' U   B  15      28.701 -18.350  49.942  0.00  0.00    +0.000 C 
BRANCH15211522
ATOM   1522  O5' U   B  15      29.925 -18.280  49.229  0.00  0.00    +0.000 OA
BRANCH15221523
ATOM   1523  P   U   B  15      30.764 -16.928  49.170  0.00  0.00    +0.000 P 
ATOM   1524  OP2 U   B  15      31.926 -17.155  48.273  0.00  0.00    +0.000 OA
BRANCH15231525
ATOM   1525  OP1 U   B  15      30.981 -16.450  50.552  0.00  0.00    +0.000 OA
ATOM   1526  H   U   B  15      31.492 -15.626  50.533  0.00  0.00    +0.000 HD
ENDBRANCH15231525
BRANCH15231527
ATOM   1527  O3' A   B  14      29.765 -15.888  48.452  0.00  0.00    +0.000 OA
BRANCH15271530
ATOM   1528  C4' A   B  14      29.203 -14.687  46.398  0.00  0.00    +0.000 C 
ATOM   1529  O4' A   B  14      28.435 -15.038  45.216  0.00  0.00    +0.000 OA
ATOM   1530  C3' A   B  14      29.431 -16.024  47.080  0.00  0.00    +0.000 C 
ATOM   1531  C2' A   B  14      28.092 -16.720  46.855  0.00  0.00    +0.000 C 
ATOM   1532  C1' A   B  14      27.749 -16.258  45.439  0.00  0.00    +0.000 C 
BRANCH15321533
ATOM   1533  N9  A   B  14      28.156 -17.237  44.420  0.00  0.00    +0.000 N 
ATOM   1534  C8  A   B  14      29.224 -17.182  43.557  0.00  0.00    +0.000 A 
ATOM   1535  N7  A   B  14      29.318 -18.227  42.766  0.00  0.00    +0.000 NA
ATOM   1536  C5  A   B  14      28.235 -19.023  43.135  0.00  0.00    +0.000 A 
ATOM   1537  C6  A   B  14      27.773 -20.269  42.673  0.00  0.00    +0.000 A 
ATOM   1538  N1  A   B  14      26.670 -20.787  43.250  0.00  0.00    +0.000 NA
ATOM   1539  C2  A   B  14      26.076 -20.090  44.228  0.00  0.00    +0.000 A 
ATOM   1540  N3  A   B  14      26.412 -18.911  44.746  0.00  0.00    +0.000 NA
ATOM   1541  C4  A   B  14      27.516 -18.426  44.147  0.00  0.00    +0.000 A 
BRANCH15371542
ATOM   1542  N6  A   B  14      28.368 -20.971  41.698  0.00  0.00    +0.000 N 
ATOM   1543  H   A   B  14      29.175 -20.617  41.259  0.00  0.00    +0.000 HD
ATOM   1544  H   A   B  14      27.998 -21.840  41.421  0.00  0.00    +0.000 HD
ENDBRANCH15371542
ENDBRANCH15321533
BRANCH15311545
ATOM   1545  O2' A   B  14      27.099 -16.261  47.750  0.00  0.00    +0.000 OA
ATOM   1546  H   A   B  14      27.008 -15.299  47.667  0.00  0.00    +0.000 HD
ENDBRANCH15311545
BRANCH15281547
ATOM   1547  C5' A   B  14      30.440 -13.913  46.008  0.00  0.00    +0.000 C 
BRANCH15471548
ATOM   1548  O5' A   B  14      31.229 -14.628  45.066  0.00  0.00    +0.000 OA
BRANCH15481549
ATOM   1549  P   A   B  14      32.467 -13.926  44.343  0.00  0.00    +0.000 P 
ATOM   1550  OP2 A   B  14      33.112 -14.940  43.473  0.00  0.00    +0.000 OA
BRANCH15491551
ATOM   1551  OP1 A   B  14      33.272 -13.224  45.370  0.00  0.00    +0.000 OA
ATOM   1552  H   A   B  14      34.030 -12.791  44.947  0.00  0.00    +0.000 HD
ENDBRANCH15491551
BRANCH15491553
ATOM   1553  O3' C   B  13      31.781 -12.794  43.395  0.00  0.00    +0.000 OA
BRANCH15531556
ATOM   1554  C4' C   B  13      30.979 -12.141  41.175  0.00  0.00    +0.000 C 
ATOM   1555  O4' C   B  13      29.810 -12.504  40.387  0.00  0.00    +0.000 OA
ATOM   1556  C3' C   B  13      30.988 -13.173  42.281  0.00  0.00    +0.000 C 
ATOM   1557  C2' C   B  13      29.500 -13.275  42.606  0.00  0.00    +0.000 C 
ATOM   1558  C1' C   B  13      28.889 -13.203  41.207  0.00  0.00    +0.000 C 
BRANCH15581559
ATOM   1559  N1  C   B  13      28.642 -14.554  40.645  0.00  0.00    +0.000 N 
ATOM   1560  C2  C   B  13      27.495 -15.243  41.070  0.00  0.00    +0.000 A 
ATOM   1561  O2  C   B  13      26.733 -14.702  41.882  0.00  0.00    +0.000 OA
ATOM   1562  N3  C   B  13      27.249 -16.487  40.583  0.00  0.00    +0.000 NA
ATOM   1563  C4  C   B  13      28.093 -17.042  39.709  0.00  0.00    +0.000 A 
ATOM   1564  N4  C   B  13      27.809 -18.266  39.259  0.00  0.00    +0.000 N 
ATOM   1565  C5  C   B  13      29.265 -16.364  39.264  0.00  0.00    +0.000 A 
ATOM   1566  C6  C   B  13      29.500 -15.132  39.754  0.00  0.00    +0.000 A 
ATOM   1567  H   C   B  13      28.409 -18.705  38.614  0.00  0.00    +0.000 HD
ATOM   1568  H   C   B  13      26.999 -18.730  39.572  0.00  0.00    +0.000 HD
ENDBRANCH15581559
BRANCH15571569
ATOM   1569  O2' C   B  13      29.051 -12.177  43.369  0.00  0.00    +0.000 OA
ATOM   1570  H   C   B  13      29.251 -11.353  42.898  0.00  0.00    +0.000 HD
ENDBRANCH15571569
BRANCH15541571
ATOM   1571  C5' C   B  13      32.205 -12.089  40.296  0.00  0.00    +0.000 C 
BRANCH15711572
ATOM   1572  O5' C   B  13      32.451 -13.335  39.656  0.00  0.00    +0.000 OA
BRANCH15721573
ATOM   1573  P   C   B  13      33.526 -13.451  38.483  0.00  0.00    +0.000 P 
ATOM   1574  OP2 C   B  13      33.570 -14.868  38.043  0.00  0.00    +0.000 OA
BRANCH15731575
ATOM   1575  OP1 C   B  13      34.774 -12.784  38.921  0.00  0.00    +0.000 OA
ATOM   1576  H   C   B  13      35.438 -12.846  38.217  0.00  0.00    +0.000 HD
ENDBRANCH15731575
BRANCH15731577
ATOM   1577  O3' U   B  12      32.893 -12.560  37.297  0.00  0.00    +0.000 OA
BRANCH15771580
ATOM   1578  C4' U   B  12      31.729 -12.534  35.145  0.00  0.00    +0.000 C 
ATOM   1579  O4' U   B  12      30.339 -12.702  34.755  0.00  0.00    +0.000 OA
ATOM   1580  C3' U   B  12      31.760 -13.025  36.576  0.00  0.00    +0.000 C 
ATOM   1581  C2' U   B  12      30.435 -12.492  37.116  0.00  0.00    +0.000 C 
ATOM   1582  C1' U   B  12      29.519 -12.716  35.911  0.00  0.00    +0.000 C 
BRANCH15821583
ATOM   1583  N1  U   B  12      28.805 -14.013  35.991  0.00  0.00    +0.000 N 
ATOM   1584  C2  U   B  12      27.669 -14.065  36.783  0.00  0.00    +0.000 A 
ATOM   1585  O2  U   B  12      27.246 -13.099  37.397  0.00  0.00    +0.000 OA
ATOM   1586  N3  U   B  12      27.042 -15.293  36.829  0.00  0.00    +0.000 N 
ATOM   1587  C4  U   B  12      27.432 -16.448  36.178  0.00  0.00    +0.000 A 
ATOM   1588  O4  U   B  12      26.769 -17.477  36.318  0.00  0.00    +0.000 OA
ATOM   1589  C5  U   B  12      28.617 -16.314  35.383  0.00  0.00    +0.000 A 
ATOM   1590  C6  U   B  12      29.250 -15.130  35.318  0.00  0.00    +0.000 A 
ATOM   1591  H   U   B  12      26.231 -15.353  37.384  0.00  0.00    +0.000 HD
ENDBRANCH15821583
BRANCH15811592
ATOM   1592  O2' U   B  12      30.500 -11.111  37.409  0.00  0.00    +0.000 OA
ATOM   1593  H   U   B  12      30.776 -10.625  36.616  0.00  0.00    +0.000 HD
ENDBRANCH15811592
BRANCH15781594
ATOM   1594  C5' U   B  12      32.630 -13.260  34.176  0.00  0.00    +0.000 C 
BRANCH15941595
ATOM   1595  O5' U   B  12      32.370 -14.661  34.161  0.00  0.00    +0.000 OA
BRANCH15951596
ATOM   1596  P   U   B  12      33.034 -15.610  33.070  0.00  0.00    +0.000 P 
ATOM   1597  OP1 U   B  12      34.484 -15.297  33.000  0.00  0.00    +0.000 OA
BRANCH15961598
ATOM   1598  OP2 U   B  12      32.597 -17.003  33.337  0.00  0.00    +0.000 OA
ATOM   1599  H   U   B  12      32.993 -17.597  32.680  0.00  0.00    +0.000 HD
ENDBRANCH15961598
BRANCH15961600
ATOM   1600  O3' U   B  11      32.371 -15.109  31.700  0.00  0.00    +0.000 OA
BRANCH16001603
ATOM   1601  C4' U   B  11      30.732 -15.540  29.938  0.00  0.00    +0.000 C 
ATOM   1602  O4' U   B  11      29.296 -15.340  29.834  0.00  0.00    +0.000 OA
ATOM   1603  C3' U   B  11      31.011 -15.411  31.427  0.00  0.00    +0.000 C 
ATOM   1604  C2' U   B  11      30.052 -14.297  31.828  0.00  0.00    +0.000 C 
ATOM   1605  C1' U   B  11      28.831 -14.636  30.968  0.00  0.00    +0.000 C 
BRANCH16051606
ATOM   1606  N1  U   B  11      27.850 -15.477  31.693  0.00  0.00    +0.000 N 
ATOM   1607  C2  U   B  11      26.995 -14.842  32.574  0.00  0.00    +0.000 A 
ATOM   1608  O2  U   B  11      27.016 -13.639  32.777  0.00  0.00    +0.000 OA
ATOM   1609  N3  U   B  11      26.104 -15.673  33.222  0.00  0.00    +0.000 N 
ATOM   1610  C4  U   B  11      25.989 -17.042  33.078  0.00  0.00    +0.000 A 
ATOM   1611  O4  U   B  11      25.140 -17.650  33.722  0.00  0.00    +0.000 OA
ATOM   1612  C5  U   B  11      26.914 -17.621  32.151  0.00  0.00    +0.000 A 
ATOM   1613  C6  U   B  11      27.790 -16.840  31.505  0.00  0.00    +0.000 A 
ATOM   1614  H   U   B  11      25.484 -15.244  33.855  0.00  0.00    +0.000 HD
ENDBRANCH16051606
BRANCH16041615
ATOM   1615  O2' U   B  11      30.541 -13.020  31.466  0.00  0.00    +0.000 OA
ATOM   1616  H   U   B  11      30.719 -13.000  30.513  0.00  0.00    +0.000 HD
ENDBRANCH16041615
BRANCH16011617
ATOM   1617  C5' U   B  11      31.109 -16.860  29.310  0.00  0.00    +0.000 C 
BRANCH16171618
ATOM   1618  O5' U   B  11      31.322 -16.708  27.911  0.00  0.00    +0.000 OA
BRANCH16181619
ATOM   1619  P   U   B  11      30.748 -17.775  26.878  0.00  0.00    +0.000 P 
ATOM   1620  OP1 U   B  11      31.183 -17.371  25.510  0.00  0.00    +0.000 OA
BRANCH16191621
ATOM   1621  OP2 U   B  11      31.082 -19.133  27.386  0.00  0.00    +0.000 OA
ATOM   1622  H   U   B  11      30.741 -19.801  26.771  0.00  0.00    +0.000 HD
ENDBRANCH16191621
BRANCH16191623
ATOM   1623  O3' U   B  10      29.166 -17.571  26.967  0.00  0.00    +0.000 OA
BRANCH16231626
ATOM   1624  C4' U   B  10      27.095 -18.099  25.864  0.00  0.00    +0.000 C 
ATOM   1625  O4' U   B  10      26.049 -17.750  26.820  0.00  0.00    +0.000 OA
ATOM   1626  C3' U   B  10      28.268 -18.651  26.686  0.00  0.00    +0.000 C 
ATOM   1627  C2' U   B  10      27.581 -19.091  27.969  0.00  0.00    +0.000 C 
ATOM   1628  C1' U   B  10      26.531 -17.987  28.129  0.00  0.00    +0.000 C 
BRANCH16281629
ATOM   1629  N1  U   B  10      25.395 -18.304  29.008  0.00  0.00    +0.000 N 
ATOM   1630  C2  U   B  10      24.890 -17.262  29.770  0.00  0.00    +0.000 A 
ATOM   1631  O2  U   B  10      25.337 -16.132  29.732  0.00  0.00    +0.000 OA
ATOM   1632  N3  U   B  10      23.831 -17.600  30.585  0.00  0.00    +0.000 N 
ATOM   1633  C4  U   B  10      23.247 -18.837  30.716  0.00  0.00    +0.000 A 
ATOM   1634  O4  U   B  10      22.302 -18.977  31.490  0.00  0.00    +0.000 OA
ATOM   1635  C5  U   B  10      23.832 -19.861  29.894  0.00  0.00    +0.000 A 
ATOM   1636  C6  U   B  10      24.852 -19.565  29.084  0.00  0.00    +0.000 A 
ATOM   1637  H   U   B  10      23.451 -16.876  31.133  0.00  0.00    +0.000 HD
ENDBRANCH16281629
BRANCH16271638
ATOM   1638  O2' U   B  10      28.427 -19.179  29.085  0.00  0.00    +0.000 OA
ATOM   1639  H   U   B  10      28.846 -18.318  29.242  0.00  0.00    +0.000 HD
ENDBRANCH16271638
BRANCH16241640
ATOM   1640  C5' U   B  10      26.556 -19.048  24.835  0.00  0.00    +0.000 C 
BRANCH16401641
ATOM   1641  O5' U   B  10      25.439 -18.468  24.149  0.00  0.00    +0.000 OA
BRANCH16411642
ATOM   1642  P   U   B  10      25.581 -17.129  23.220  0.00  0.00    +0.000 P 
ATOM   1643  OP2 U   B  10      26.883 -17.205  22.523  0.00  0.00    +0.000 OA
BRANCH16421644
ATOM   1644  OP1 U   B  10      25.266 -15.951  24.085  0.00  0.00    +0.000 OA
ATOM   1645  H   U   B  10      25.341 -15.137  23.563  0.00  0.00    +0.000 HD
ENDBRANCH16421644
BRANCH16421646
ATOM   1646  O3' A   B   9      24.434 -17.324  22.144  0.00  0.00    +0.000 OA
BRANCH16461649
ATOM   1647  C4' A   B   9      23.718 -17.941  19.920  0.00  0.00    +0.000 C 
ATOM   1648  O4' A   B   9      23.128 -19.149  19.430  0.00  0.00    +0.000 OA
ATOM   1649  C3' A   B   9      24.543 -18.337  21.129  0.00  0.00    +0.000 C 
ATOM   1650  C2' A   B   9      23.964 -19.669  21.597  0.00  0.00    +0.000 C 
ATOM   1651  C1' A   B   9      23.040 -20.102  20.460  0.00  0.00    +0.000 C 
BRANCH16511652
ATOM   1652  N9  A   B   9      23.390 -21.404  19.901  0.00  0.00    +0.000 N 
ATOM   1653  C8  A   B   9      24.237 -21.682  18.860  0.00  0.00    +0.000 A 
ATOM   1654  N7  A   B   9      24.328 -22.961  18.579  0.00  0.00    +0.000 NA
ATOM   1655  C5  A   B   9      23.480 -23.559  19.499  0.00  0.00    +0.000 A 
ATOM   1656  C6  A   B   9      23.138 -24.897  19.730  0.00  0.00    +0.000 A 
ATOM   1657  N1  A   B   9      22.266 -25.155  20.726  0.00  0.00    +0.000 NA
ATOM   1658  C2  A   B   9      21.773 -24.131  21.435  0.00  0.00    +0.000 A 
ATOM   1659  N3  A   B   9      22.022 -22.833  21.314  0.00  0.00    +0.000 NA
ATOM   1660  C4  A   B   9      22.891 -22.613  20.315  0.00  0.00    +0.000 A 
BRANCH16561661
ATOM   1661  N6  A   B   9      23.630 -25.918  19.019  0.00  0.00    +0.000 N 
ATOM   1662  H   A   B   9      24.268 -25.747  18.289  0.00  0.00    +0.000 HD
ATOM   1663  H   A   B   9      23.354 -26.840  19.226  0.00  0.00    +0.000 HD
ENDBRANCH16561661
ENDBRANCH16511652
BRANCH16501664
ATOM   1664  O2' A   B   9      23.199 -19.565  22.788  0.00  0.00    +0.000 OA
ATOM   1665  H   A   B   9      22.462 -18.951  22.646  0.00  0.00    +0.000 HD
ENDBRANCH16501664
BRANCH16471666
ATOM   1666  C5' A   B   9      24.517 -17.298  18.802  0.00  0.00    +0.000 C 
BRANCH16661667
ATOM   1667  O5' A   B   9      25.640 -18.124  18.498  0.00  0.00    +0.000 OA
BRANCH16671668
ATOM   1668  P   A   B   9      26.124 -18.375  17.004  0.00  0.00    +0.000 P 
ATOM   1669  OP1 A   B   9      25.170 -19.301  16.315  0.00  0.00    +0.000 OA
BRANCH16681670
ATOM   1670  OP2 A   B   9      26.439 -17.054  16.391  0.00  0.00    +0.000 OA
ATOM   1671  H   A   B   9      26.737 -17.184  15.477  0.00  0.00    +0.000 HD
ENDBRANCH16681670
BRANCH16681672
ATOM   1672  O3' U   B   8      27.523 -19.187  17.229  0.00  0.00    +0.000 OA
BRANCH16721675
ATOM   1673  C4' U   B   8      29.872 -19.192  17.893  0.00  0.00    +0.000 C 
ATOM   1674  O4' U   B   8      30.042 -20.154  18.974  0.00  0.00    +0.000 OA
ATOM   1675  C3' U   B   8      28.488 -18.571  18.074  0.00  0.00    +0.000 C 
ATOM   1676  C2' U   B   8      28.179 -18.843  19.533  0.00  0.00    +0.000 C 
ATOM   1677  C1' U   B   8      28.866 -20.188  19.755  0.00  0.00    +0.000 C 
BRANCH16771678
ATOM   1678  N1  U   B   8      29.217 -20.411  21.166  0.00  0.00    +0.000 N 
ATOM   1679  C2  U   B   8      28.920 -21.639  21.721  0.00  0.00    +0.000 A 
ATOM   1680  O2  U   B   8      28.412 -22.549  21.084  0.00  0.00    +0.000 OA
ATOM   1681  N3  U   B   8      29.246 -21.769  23.049  0.00  0.00    +0.000 N 
ATOM   1682  C4  U   B   8      29.822 -20.817  23.862  0.00  0.00    +0.000 A 
ATOM   1683  O4  U   B   8      30.049 -21.086  25.035  0.00  0.00    +0.000 OA
ATOM   1684  C5  U   B   8      30.100 -19.574  23.215  0.00  0.00    +0.000 A 
ATOM   1685  C6  U   B   8      29.793 -19.415  21.920  0.00  0.00    +0.000 A 
ATOM   1686  H   U   B   8      29.046 -22.638  23.466  0.00  0.00    +0.000 HD
ENDBRANCH16771678
BRANCH16761687
ATOM   1687  O2' U   B   8      26.797 -18.900  19.853  0.00  0.00    +0.000 OA
ATOM   1688  H   U   B   8      26.372 -19.598  19.330  0.00  0.00    +0.000 HD
ENDBRANCH16761687
BRANCH16731689
ATOM   1689  C5' U   B   8      31.008 -18.199  17.952  0.00  0.00    +0.000 C 
BRANCH16891690
ATOM   1690  O5' U   B   8      30.921 -17.412  19.129  0.00  0.00    +0.000 OA
BRANCH16901691
ATOM   1691  P   U   B   8      32.157 -16.545  19.625  0.00  0.00    +0.000 P 
ATOM   1692  OP1 U   B   8      32.406 -15.469  18.638  0.00  0.00    +0.000 OA
BRANCH16911693
ATOM   1693  OP2 U   B   8      31.911 -16.183  21.055  0.00  0.00    +0.000 OA
ATOM   1694  H   U   B   8      31.170 -15.559  21.108  0.00  0.00    +0.000 HD
ENDBRANCH16911693
BRANCH16911695
ATOM   1695  O3' C   B   7      33.376 -17.570  19.559  0.00  0.00    +0.000 OA
BRANCH16951698
ATOM   1696  C4' C   B   7      35.254 -18.351  20.883  0.00  0.00    +0.000 C 
ATOM   1697  O4' C   B   7      35.480 -19.518  21.715  0.00  0.00    +0.000 OA
ATOM   1698  C3' C   B   7      33.751 -18.319  20.702  0.00  0.00    +0.000 C 
ATOM   1699  C2' C   B   7      33.404 -19.801  20.594  0.00  0.00    +0.000 C 
ATOM   1700  C1' C   B   7      34.394 -20.416  21.586  0.00  0.00    +0.000 C 
BRANCH17001701
ATOM   1701  N1  C   B   7      33.803 -20.641  22.922  0.00  0.00    +0.000 N 
ATOM   1702  C2  C   B   7      33.105 -21.829  23.151  0.00  0.00    +0.000 A 
ATOM   1703  O2  C   B   7      32.999 -22.654  22.235  0.00  0.00    +0.000 OA
ATOM   1704  N3  C   B   7      32.560 -22.050  24.376  0.00  0.00    +0.000 NA
ATOM   1705  C4  C   B   7      32.693 -21.143  25.344  0.00  0.00    +0.000 A 
ATOM   1706  N4  C   B   7      32.141 -21.408  26.529  0.00  0.00    +0.000 N 
ATOM   1707  C5  C   B   7      33.399 -19.929  25.132  0.00  0.00    +0.000 A 
ATOM   1708  C6  C   B   7      33.932 -19.721  23.923  0.00  0.00    +0.000 A 
ATOM   1709  H   C   B   7      31.653 -22.252  26.667  0.00  0.00    +0.000 HD
ATOM   1710  H   C   B   7      32.221 -20.760  27.265  0.00  0.00    +0.000 HD
ENDBRANCH17001701
BRANCH16991711
ATOM   1711  O2' C   B   7      33.662 -20.309  19.305  0.00  0.00    +0.000 OA
ATOM   1712  H   C   B   7      34.591 -20.151  19.075  0.00  0.00    +0.000 HD
ENDBRANCH16991711
BRANCH16961713
ATOM   1713  C5' C   B   7      35.862 -17.128  21.535  0.00  0.00    +0.000 C 
BRANCH17131714
ATOM   1714  O5' C   B   7      35.236 -16.851  22.777  0.00  0.00    +0.000 OA
BRANCH17141715
ATOM   1715  P   C   B   7      35.846 -15.769  23.780  0.00  0.00    +0.000 P 
ATOM   1716  OP1 C   B   7      36.034 -14.497  23.039  0.00  0.00    +0.000 OA
BRANCH17151717
ATOM   1717  OP2 C   B   7      35.032 -15.788  25.024  0.00  0.00    +0.000 OA
ATOM   1718  H   C   B   7      34.148 -15.436  24.837  0.00  0.00    +0.000 HD
ENDBRANCH17151717
BRANCH17151719
ATOM   1719  O3' A   B   6      37.297 -16.353  24.114  0.00  0.00    +0.000 OA
BRANCH17191722
ATOM   1720  C4' A   B   6      38.729 -17.416  25.777  0.00  0.00    +0.000 C 
ATOM   1721  O4' A   B   6      38.918 -18.788  26.203  0.00  0.00    +0.000 OA
ATOM   1722  C3' A   B   6      37.433 -17.459  24.991  0.00  0.00    +0.000 C 
ATOM   1723  C2' A   B   6      37.549 -18.792  24.266  0.00  0.00    +0.000 C 
ATOM   1724  C1' A   B   6      38.210 -19.657  25.336  0.00  0.00    +0.000 C 
BRANCH17241725
ATOM   1725  N9  A   B   6      37.224 -20.406  26.125  0.00  0.00    +0.000 N 
ATOM   1726  C8  A   B   6      36.729 -20.110  27.370  0.00  0.00    +0.000 A 
ATOM   1727  N7  A   B   6      35.854 -20.982  27.812  0.00  0.00    +0.000 NA
ATOM   1728  C5  A   B   6      35.770 -21.914  26.786  0.00  0.00    +0.000 A 
ATOM   1729  C6  A   B   6      35.015 -23.091  26.636  0.00  0.00    +0.000 A 
ATOM   1730  N6  A   B   6      34.163 -23.548  27.564  0.00  0.00    +0.000 N 
ATOM   1731  N1  A   B   6      35.163 -23.791  25.495  0.00  0.00    +0.000 NA
ATOM   1732  C2  A   B   6      36.016 -23.333  24.570  0.00  0.00    +0.000 A 
ATOM   1733  N3  A   B   6      36.779 -22.245  24.594  0.00  0.00    +0.000 NA
ATOM   1734  C4  A   B   6      36.605 -21.572  25.745  0.00  0.00    +0.000 A 
ATOM   1735  H   A   B   6      33.660 -24.379  27.404  0.00  0.00    +0.000 HD
ATOM   1736  H   A   B   6      34.040 -23.052  28.406  0.00  0.00    +0.000 HD
ENDBRANCH17241725
BRANCH17231737
ATOM   1737  O2' A   B   6      38.401 -18.712  23.141  0.00  0.00    +0.000 OA
ATOM   1738  H   A   B   6      39.273 -18.391  23.418  0.00  0.00    +0.000 HD
ENDBRANCH17231737
BRANCH17201739
ATOM   1739  C5' A   B   6      38.745 -16.494  26.978  0.00  0.00    +0.000 C 
BRANCH17391740
ATOM   1740  O5' A   B   6      37.662 -16.780  27.857  0.00  0.00    +0.000 OA
BRANCH17401741
ATOM   1741  P   A   B   6      37.552 -16.054  29.275  0.00  0.00    +0.000 P 
ATOM   1742  OP1 A   B   6      37.759 -14.597  29.073  0.00  0.00    +0.000 OA
BRANCH17411743
ATOM   1743  OP2 A   B   6      36.316 -16.541  29.942  0.00  0.00    +0.000 OA
ATOM   1744  H   A   B   6      35.539 -16.215  29.461  0.00  0.00    +0.000 HD
ENDBRANCH17411743
BRANCH17411745
ATOM   1745  O3' U   B   5      38.816 -16.601  30.082  0.00  0.00    +0.000 OA
BRANCH17451748
ATOM   1746  C4' U   B   5      39.585 -18.144  31.809  0.00  0.00    +0.000 C 
ATOM   1747  O4' U   B   5      39.895 -19.563  31.816  0.00  0.00    +0.000 OA
ATOM   1748  C3' U   B   5      38.827 -17.953  30.514  0.00  0.00    +0.000 C 
ATOM   1749  C2' U   B   5      39.586 -18.880  29.569  0.00  0.00    +0.000 C 
ATOM   1750  C1' U   B   5      39.879 -20.061  30.493  0.00  0.00    +0.000 C 
BRANCH17501751
ATOM   1751  N1  U   B   5      38.851 -21.119  30.383  0.00  0.00    +0.000 N 
ATOM   1752  C2  U   B   5      38.954 -21.997  29.317  0.00  0.00    +0.000 A 
ATOM   1753  O2  U   B   5      39.846 -21.928  28.486  0.00  0.00    +0.000 OA
ATOM   1754  N3  U   B   5      37.971 -22.956  29.256  0.00  0.00    +0.000 N 
ATOM   1755  C4  U   B   5      36.920 -23.128  30.133  0.00  0.00    +0.000 A 
ATOM   1756  O4  U   B   5      36.121 -24.039  29.944  0.00  0.00    +0.000 OA
ATOM   1757  C5  U   B   5      36.884 -22.183  31.203  0.00  0.00    +0.000 A 
ATOM   1758  C6  U   B   5      37.827 -21.236  31.290  0.00  0.00    +0.000 A 
ATOM   1759  H   U   B   5      38.023 -23.589  28.504  0.00  0.00    +0.000 HD
ENDBRANCH17501751
BRANCH17491760
ATOM   1760  O2' U   B   5      40.805 -18.314  29.138  0.00  0.00    +0.000 OA
ATOM   1761  H   U   B   5      41.345 -18.083  29.910  0.00  0.00    +0.000 HD
ENDBRANCH17491760
BRANCH17461762
ATOM   1762  C5' U   B   5      38.844 -17.763  33.074  0.00  0.00    +0.000 C 
BRANCH17621763
ATOM   1763  O5' U   B   5      37.613 -18.471  33.190  0.00  0.00    +0.000 OA
BRANCH17631764
ATOM   1764  P   U   B   5      36.739 -18.387  34.528  0.00  0.00    +0.000 P 
ATOM   1765  OP2 U   B   5      35.528 -19.234  34.335  0.00  0.00    +0.000 OA
BRANCH17641766
ATOM   1766  OP1 U   B   5      36.590 -16.958  34.903  0.00  0.00    +0.000 OA
ATOM   1767  H   U   B   5      36.030 -16.509  34.250  0.00  0.00    +0.000 HD
ENDBRANCH17641766
BRANCH17641768
ATOM   1768  O3' A   B   4      37.664 -19.067  35.632  0.00  0.00    +0.000 OA
BRANCH17681771
ATOM   1769  C4' A   B   4      38.114 -21.038  37.001  0.00  0.00    +0.000 C 
ATOM   1770  O4' A   B   4      38.739 -22.317  36.728  0.00  0.00    +0.000 OA
ATOM   1771  C3' A   B   4      37.851 -20.473  35.620  0.00  0.00    +0.000 C 
ATOM   1772  C2' A   B   4      39.099 -20.902  34.863  0.00  0.00    +0.000 C 
ATOM   1773  C1' A   B   4      39.324 -22.297  35.439  0.00  0.00    +0.000 C 
BRANCH17731774
ATOM   1774  N9  A   B   4      38.694 -23.336  34.615  0.00  0.00    +0.000 N 
ATOM   1775  C8  A   B   4      37.509 -23.991  34.829  0.00  0.00    +0.000 A 
ATOM   1776  N7  A   B   4      37.216 -24.868  33.900  0.00  0.00    +0.000 NA
ATOM   1777  C5  A   B   4      38.283 -24.781  33.014  0.00  0.00    +0.000 A 
ATOM   1778  C6  A   B   4      38.577 -25.454  31.816  0.00  0.00    +0.000 A 
ATOM   1779  N1  A   B   4      39.719 -25.134  31.180  0.00  0.00    +0.000 NA
ATOM   1780  C2  A   B   4      40.513 -24.199  31.717  0.00  0.00    +0.000 A 
ATOM   1781  N3  A   B   4      40.347 -23.498  32.833  0.00  0.00    +0.000 NA
ATOM   1782  C4  A   B   4      39.195 -23.843  33.439  0.00  0.00    +0.000 A 
BRANCH17781783
ATOM   1783  N6  A   B   4      37.782 -26.390  31.277  0.00  0.00    +0.000 N 
ATOM   1784  H   A   B   4      38.040 -26.829  30.434  0.00  0.00    +0.000 HD
ATOM   1785  H   A   B   4      36.941 -26.638  31.724  0.00  0.00    +0.000 HD
ENDBRANCH17781783
ENDBRANCH17731774
BRANCH17721786
ATOM   1786  O2' A   B   4      40.214 -20.088  35.169  0.00  0.00    +0.000 OA
ATOM   1787  H   A   B   4      40.368 -20.097  36.127  0.00  0.00    +0.000 HD
ENDBRANCH17721786
BRANCH17691788
ATOM   1788  C5' A   B   4      36.904 -21.230  37.889  0.00  0.00    +0.000 C 
BRANCH17881789
ATOM   1789  O5' A   B   4      35.928 -22.064  37.266  0.00  0.00    +0.000 OA
BRANCH17891790
ATOM   1790  P   A   B   4      34.643 -22.557  38.076  0.00  0.00    +0.000 P 
ATOM   1791  OP2 A   B   4      33.816 -23.386  37.155  0.00  0.00    +0.000 OA
BRANCH17901792
ATOM   1792  OP1 A   B   4      34.038 -21.386  38.757  0.00  0.00    +0.000 OA
ATOM   1793  H   A   B   4      33.662 -20.785  38.095  0.00  0.00    +0.000 HD
ENDBRANCH17901792
BRANCH17901794
ATOM   1794  O3' A   B   3      35.237 -23.498  39.206  0.00  0.00    +0.000 OA
BRANCH17941797
ATOM   1795  C4' A   B   3      35.614 -25.755  40.057  0.00  0.00    +0.000 C 
ATOM   1796  O4' A   B   3      36.514 -26.823  39.671  0.00  0.00    +0.000 OA
ATOM   1797  C3' A   B   3      35.655 -24.813  38.871  0.00  0.00    +0.000 C 
ATOM   1798  C2' A   B   3      37.112 -24.890  38.448  0.00  0.00    +0.000 C 
ATOM   1799  C1' A   B   3      37.390 -26.376  38.653  0.00  0.00    +0.000 C 
BRANCH17991800
ATOM   1800  N9  A   B   3      37.124 -27.150  37.432  0.00  0.00    +0.000 N 
ATOM   1801  C8  A   B   3      35.980 -27.830  37.091  0.00  0.00    +0.000 A 
ATOM   1802  N7  A   B   3      36.050 -28.421  35.923  0.00  0.00    +0.000 NA
ATOM   1803  C5  A   B   3      37.322 -28.107  35.465  0.00  0.00    +0.000 A 
ATOM   1804  C6  A   B   3      38.015 -28.434  34.286  0.00  0.00    +0.000 A 
ATOM   1805  N1  A   B   3      39.265 -27.962  34.142  0.00  0.00    +0.000 NA
ATOM   1806  C2  A   B   3      39.785 -27.212  35.122  0.00  0.00    +0.000 A 
ATOM   1807  N3  A   B   3      39.241 -26.838  36.273  0.00  0.00    +0.000 NA
ATOM   1808  C4  A   B   3      37.992 -27.325  36.382  0.00  0.00    +0.000 A 
BRANCH18041809
ATOM   1809  N6  A   B   3      37.489 -29.181  33.305  0.00  0.00    +0.000 N 
ATOM   1810  H   A   B   3      38.019 -29.380  32.500  0.00  0.00    +0.000 HD
ATOM   1811  H   A   B   3      36.573 -29.531  33.390  0.00  0.00    +0.000 HD
ENDBRANCH18041809
ENDBRANCH17991800
BRANCH17981812
ATOM   1812  O2' A   B   3      37.954 -24.140  39.305  0.00  0.00    +0.000 OA
ATOM   1813  H   A   B   3      37.837 -24.443  40.219  0.00  0.00    +0.000 HD
ENDBRANCH17981812
BRANCH17951814
ATOM   1814  C5' A   B   3      34.262 -26.337  40.401  0.00  0.00    +0.000 C 
BRANCH18141815
ATOM   1815  O5' A   B   3      33.762 -27.147  39.334  0.00  0.00    +0.000 OA
BRANCH18151816
ATOM   1816  P   A   B   3      32.974 -28.498  39.637  0.00  0.00    +0.000 P 
ATOM   1817  OP2 A   B   3      32.663 -29.146  38.340  0.00  0.00    +0.000 OA
BRANCH18161818
ATOM   1818  OP1 A   B   3      31.879 -28.194  40.591  0.00  0.00    +0.000 OA
ATOM   1819  H   A   B   3      31.206 -27.654  40.149  0.00  0.00    +0.000 HD
ENDBRANCH18161818
BRANCH18161820
ATOM   1820  O3' U   B   2      34.051 -29.380  40.396  0.00  0.00    +0.000 OA
BRANCH18201823
ATOM   1821  C4' U   B   2      34.728 -31.712  40.273  0.00  0.00    +0.000 C 
ATOM   1822  O4' U   B   2      35.919 -32.391  39.798  0.00  0.00    +0.000 OA
ATOM   1823  C3' U   B   2      34.843 -30.327  39.681  0.00  0.00    +0.000 C 
ATOM   1824  C2' U   B   2      36.341 -30.056  39.776  0.00  0.00    +0.000 C 
ATOM   1825  C1' U   B   2      36.916 -31.441  39.470  0.00  0.00    +0.000 C 
BRANCH18251826
ATOM   1826  N1  U   B   2      37.292 -31.602  38.047  0.00  0.00    +0.000 N 
ATOM   1827  C2  U   B   2      38.499 -31.061  37.639  0.00  0.00    +0.000 A 
ATOM   1828  O2  U   B   2      39.247 -30.462  38.395  0.00  0.00    +0.000 OA
ATOM   1829  N3  U   B   2      38.803 -31.245  36.308  0.00  0.00    +0.000 N 
ATOM   1830  C4  U   B   2      38.036 -31.904  35.363  0.00  0.00    +0.000 A 
ATOM   1831  O4  U   B   2      38.443 -31.989  34.205  0.00  0.00    +0.000 OA
ATOM   1832  C5  U   B   2      36.807 -32.434  35.868  0.00  0.00    +0.000 A 
ATOM   1833  C6  U   B   2      36.484 -32.271  37.159  0.00  0.00    +0.000 A 
ATOM   1834  H   U   B   2      39.657 -30.867  35.996  0.00  0.00    +0.000 HD
ENDBRANCH18251826
BRANCH18241835
ATOM   1835  O2' U   B   2      36.726 -29.670  41.083  0.00  0.00    +0.000 OA
ATOM   1836  H   U   B   2      36.454 -30.354  41.715  0.00  0.00    +0.000 HD
ENDBRANCH18241835
BRANCH18211837
ATOM   1837  C5' U   B   2      33.495 -32.492  39.883  0.00  0.00    +0.000 C 
BRANCH18371838
ATOM   1838  O5' U   B   2      33.336 -32.522  38.465  0.00  0.00    +0.000 OA
BRANCH18381839
ATOM   1839  P   U   B   2      32.101 -33.282  37.794  0.00  0.00    +0.000 P 
ATOM   1840  OP2 U   B   2      32.228 -33.147  36.319  0.00  0.00    +0.000 OA
BRANCH18391841
ATOM   1841  OP1 U   B   2      30.851 -32.852  38.468  0.00  0.00    +0.000 OA
ATOM   1842  H   U   B   2      30.094 -33.308  38.068  0.00  0.00    +0.000 HD
ENDBRANCH18391841
BRANCH18391843
ATOM   1843  O3' C   B   1      32.360 -34.822  38.201  0.00  0.00    +0.000 OA
BRANCH18431846
ATOM   1844  C4' C   B   1      33.030 -37.024  37.420  0.00  0.00    +0.000 C 
ATOM   1845  O4' C   B   1      34.314 -37.680  37.235  0.00  0.00    +0.000 OA
ATOM   1846  C3' C   B   1      33.386 -35.562  37.547  0.00  0.00    +0.000 C 
ATOM   1847  C2' C   B   1      34.685 -35.616  38.329  0.00  0.00    +0.000 C 
ATOM   1848  C1' C   B   1      35.347 -36.854  37.739  0.00  0.00    +0.000 C 
BRANCH18481849
ATOM   1849  N1  C   B   1      36.295 -36.544  36.649  0.00  0.00    +0.000 N 
ATOM   1850  C2  C   B   1      37.540 -36.011  36.972  0.00  0.00    +0.000 A 
ATOM   1851  O2  C   B   1      37.826 -35.809  38.167  0.00  0.00    +0.000 OA
ATOM   1852  N3  C   B   1      38.421 -35.726  35.983  0.00  0.00    +0.000 NA
ATOM   1853  C4  C   B   1      38.088 -35.955  34.711  0.00  0.00    +0.000 A 
ATOM   1854  N4  C   B   1      38.987 -35.666  33.773  0.00  0.00    +0.000 N 
ATOM   1855  C5  C   B   1      36.824 -36.496  34.353  0.00  0.00    +0.000 A 
ATOM   1856  C6  C   B   1      35.966 -36.772  35.344  0.00  0.00    +0.000 A 
ATOM   1857  H   C   B   1      38.776 -35.822  32.824  0.00  0.00    +0.000 HD
ATOM   1858  H   C   B   1      39.863 -35.296  34.028  0.00  0.00    +0.000 HD
ENDBRANCH18481849
BRANCH18471859
ATOM   1859  O2' C   B   1      34.444 -35.824  39.700  0.00  0.00    +0.000 OA
ATOM   1860  H   C   B   1      33.921 -36.633  39.817  0.00  0.00    +0.000 HD
ENDBRANCH18471859
BRANCH18441861
ATOM   1861  C5' C   B   1      32.106 -37.373  36.283  0.00  0.00    +0.000 C 
BRANCH18611862
ATOM   1862  O5' C   B   1      32.600 -36.873  35.053  0.00  0.00    +0.000 OA
BRANCH18621863
ATOM   1863  P   C   B   1      31.821 -37.088  33.674  0.00  0.00    +0.000 P 
ATOM   1864  OP2 C   B   1      32.652 -36.417  32.630  0.00  0.00    +0.000 OA
BRANCH18631865
ATOM   1865  OP3 C   B   1      31.870 -38.253  33.143  0.00  0.00    +0.000 OA
ATOM   1866  H   C   B   1      31.362 -38.253  32.317  0.00  0.00    +0.000 HD
ENDBRANCH18631865
BRANCH18631867
ATOM   1867  OP1 C   B   1      30.472 -36.556  33.833  0.00  0.00    +0.000 OA
ATOM   1868  H   C   B   1      29.978 -36.675  33.007  0.00  0.00    +0.000 HD
ENDBRANCH18631867
ENDBRANCH18621863
ENDBRANCH18611862
ENDBRANCH18441861
ENDBRANCH18431846
ENDBRANCH18391843
ENDBRANCH18381839
ENDBRANCH18371838
ENDBRANCH18211837
ENDBRANCH18201823
ENDBRANCH18161820
ENDBRANCH18151816
ENDBRANCH18141815
ENDBRANCH17951814
ENDBRANCH17941797
ENDBRANCH17901794
ENDBRANCH17891790
ENDBRANCH17881789
ENDBRANCH17691788
ENDBRANCH17681771
ENDBRANCH17641768
ENDBRANCH17631764
ENDBRANCH17621763
ENDBRANCH17461762
ENDBRANCH17451748
ENDBRANCH17411745
ENDBRANCH17401741
ENDBRANCH17391740
ENDBRANCH17201739
ENDBRANCH17191722
ENDBRANCH17151719
ENDBRANCH17141715
ENDBRANCH17131714
ENDBRANCH16961713
ENDBRANCH16951698
ENDBRANCH16911695
ENDBRANCH16901691
ENDBRANCH16891690
ENDBRANCH16731689
ENDBRANCH16721675
ENDBRANCH16681672
ENDBRANCH16671668
ENDBRANCH16661667
ENDBRANCH16471666
ENDBRANCH16461649
ENDBRANCH16421646
ENDBRANCH16411642
ENDBRANCH16401641
ENDBRANCH16241640
ENDBRANCH16231626
ENDBRANCH16191623
ENDBRANCH16181619
ENDBRANCH16171618
ENDBRANCH16011617
ENDBRANCH16001603
ENDBRANCH15961600
ENDBRANCH15951596
ENDBRANCH15941595
ENDBRANCH15781594
ENDBRANCH15771580
ENDBRANCH15731577
ENDBRANCH15721573
ENDBRANCH15711572
ENDBRANCH15541571
ENDBRANCH15531556
ENDBRANCH15491553
ENDBRANCH15481549
ENDBRANCH15471548
ENDBRANCH15281547
ENDBRANCH15271530
ENDBRANCH15231527
ENDBRANCH15221523
ENDBRANCH15211522
ENDBRANCH15051521
ENDBRANCH15041507
ENDBRANCH15001504
ENDBRANCH14991500
ENDBRANCH14981499
ENDBRANCH14811498
ENDBRANCH14801483
ENDBRANCH14761480
ENDBRANCH14751476
ENDBRANCH14741475
ENDBRANCH14571474
ENDBRANCH14561459
ENDBRANCH14521456
ENDBRANCH14511452
ENDBRANCH14501451
ENDBRANCH14291450
ENDBRANCH14281431
ENDBRANCH14241428
ENDBRANCH14231424
ENDBRANCH14221423
ENDBRANCH14031422
ENDBRANCH14021405
ENDBRANCH13981402
ENDBRANCH13971398
ENDBRANCH13961397
ENDBRANCH13771396
ENDBRANCH13761379
ENDBRANCH13721376
ENDBRANCH13711372
ENDBRANCH13701371
ENDBRANCH13511370
ENDBRANCH13501353
ENDBRANCH13461350
ENDBRANCH13451346
ENDBRANCH13441345
ENDBRANCH13271344
ENDBRANCH13261329
ENDBRANCH13221326
ENDBRANCH13211322
ENDBRANCH13201321
ENDBRANCH13041320
ENDBRANCH13031306
ENDBRANCH12991303
ENDBRANCH12981299
ENDBRANCH12971298
ENDBRANCH12811297
ENDBRANCH12801283
ENDBRANCH12761280
ENDBRANCH12751276
ENDBRANCH12741275
ENDBRANCH12581274
ENDBRANCH12571260
ENDBRANCH12531257
ENDBRANCH12521253
ENDBRANCH12511252
ENDBRANCH12351251
ENDBRANCH12341237
ENDBRANCH12301234
ENDBRANCH12291230
ENDBRANCH12281229
ENDBRANCH12121228
ENDBRANCH12111214
ENDBRANCH12071211
ENDBRANCH12061207
ENDBRANCH12051206
ENDBRANCH11891205
ENDBRANCH11881191
ENDBRANCH11841188
ENDBRANCH11831184
ENDBRANCH11821183
ENDBRANCH11631182
ENDBRANCH11621165
ENDBRANCH11581162
ENDBRANCH11571158
ENDBRANCH11561157
ENDBRANCH11371156
ENDBRANCH11361139
ENDBRANCH11321136
ENDBRANCH11311132
ENDBRANCH11301131
ENDBRANCH11111130
ENDBRANCH11101113
ENDBRANCH11061110
ENDBRANCH11051106
ENDBRANCH11041105
ENDBRANCH10851104
ENDBRANCH10841087
ENDBRANCH10801084
ENDBRANCH10791080
ENDBRANCH10781079
ENDBRANCH10621078
ENDBRANCH10611064
ENDBRANCH10571061
ENDBRANCH10561057
ENDBRANCH10551056
ENDBRANCH10361055
ENDBRANCH10351038
ENDBRANCH10311035
ENDBRANCH10301031
ENDBRANCH10291030
ENDBRANCH10101029
ENDBRANCH10091012
ENDBRANCH10051009
ENDBRANCH10041005
ENDBRANCH10031004
ENDBRANCH 9871003
ENDBRANCH 986 989
ENDBRANCH 982 986
ENDBRANCH 981 982
ENDBRANCH 980 981
ENDBRANCH 961 980
ENDBRANCH 960 963
ENDBRANCH 956 960
ENDBRANCH 955 956
ENDBRANCH 954 955
ENDBRANCH 938 954
ENDBRANCH 937 940
ENDBRANCH   1 937
TORSDOF 628
