REMARK  Name = /storage/kiran-stuff/aaRS/phase2/energy_scoring/vina_182jobs/deep_editing_thr_THR/ligand.h.pdb
REMARK  6 active torsions:
REMARK  status: ('A' for Active; 'I' for Inactive)
REMARK    1  A    between atoms: N_1  and  CA_2
REMARK    2  A    between atoms: CA_2  and  C_3
REMARK    3  A    between atoms: CA_2  and  CB_5
REMARK    4  A    between atoms: C_3  and  OXT_8
REMARK    5  A    between atoms: CB_5  and  OG1_6
REMARK    6  A    between atoms: CB_5  and  CG2_7
REMARK                            x       y       z     vdW  Elec       q    Type
REMARK                         _______ _______ _______ _____ _____    ______ ____
ROOT
ATOM      1  CA  THR C   1      -8.920  11.671 -46.474  0.00  0.00    +0.000 C 
ENDROOT
BRANCH   1   2
ATOM      2  N   THR C   1      -8.447  11.182 -47.758  0.00  0.00    +0.000 NA
ATOM      3  H   THR C   1      -9.216  11.185 -48.428  0.00  0.00    +0.000 HD
ATOM      4  H   THR C   1      -8.094  10.231 -47.651  0.00  0.00    +0.000 HD
ENDBRANCH   1   2
BRANCH   1   5
ATOM      5  C   THR C   1      -9.490  13.068 -46.575  0.00  0.00    +0.000 C 
ATOM      6  O   THR C   1      -9.480  13.653 -47.656  0.00  0.00    +0.000 OA
BRANCH   5   7
ATOM      7  OXT THR C   1      -9.992  13.601 -45.561  0.00  0.00    +0.000 OA
ATOM      8  H   THR C   1      -9.993  13.144 -44.743  0.00  0.00    +0.000 HD
ENDBRANCH   5   7
ENDBRANCH   1   5
BRANCH   1   9
ATOM      9  CB  THR C   1      -7.766  11.667 -45.466  0.00  0.00    +0.000 C 
ATOM     10  CG2 THR C   1      -6.799  12.787 -45.764  0.00  0.00    +0.000 C 
BRANCH   9  11
ATOM     11  OG1 THR C   1      -7.102  10.414 -45.541  0.00  0.00    +0.000 OA
ATOM     12  H   THR C   1      -6.755  10.285 -46.438  0.00  0.00    +0.000 HD
ENDBRANCH   9  11
ENDBRANCH   1   9
TORSDOF 5
