REMARK  Name = /storage/kiran-stuff/aaRS/phase2/energy_scoring/vina_182jobs/anc_thrrs_cat_zn_ILE_ILE/ligand.h.pdb
REMARK  7 active torsions:
REMARK  status: ('A' for Active; 'I' for Inactive)
REMARK    1  A    between atoms: N_1  and  CA_2
REMARK    2  A    between atoms: CA_2  and  C_3
REMARK    3  A    between atoms: CA_2  and  CB_5
REMARK    4  A    between atoms: C_3  and  O_4
REMARK    5  A    between atoms: CB_5  and  CG1_6
REMARK    6  A    between atoms: CB_5  and  CG2_7
REMARK    7  A    between atoms: CG1_6  and  CD1_8
REMARK                            x       y       z     vdW  Elec       q    Type
REMARK                         _______ _______ _______ _____ _____    ______ ____
ROOT
ATOM      1  CA  ILE B   1      -4.582   2.382   4.391  0.00  0.00    +0.000 C 
ENDROOT
BRANCH   1   2
ATOM      2  N   ILE B   1      -4.891   2.553   2.968  0.00  0.00    +0.000 NA
ATOM      3  H   ILE B   1      -4.377   1.861   2.423  0.00  0.00    +0.000 HD
ATOM      4  H   ILE B   1      -4.619   3.490   2.671  0.00  0.00    +0.000 HD
ENDBRANCH   1   2
BRANCH   1   5
ATOM      5  C   ILE B   1      -5.339   3.405   5.223  0.00  0.00    +0.000 C 
ATOM      6  OXT ILE B   1      -5.871   4.357   4.657  0.00  0.00    +0.000 OA
BRANCH   5   7
ATOM      7  O   ILE B   1      -5.446   3.261   6.445  0.00  0.00    +0.000 OA
ATOM      8  H   ILE B   1      -5.037   2.532   6.868  0.00  0.00    +0.000 HD
ENDBRANCH   5   7
ENDBRANCH   1   5
BRANCH   1   9
ATOM      9  CB  ILE B   1      -3.055   2.478   4.573  0.00  0.00    +0.000 C 
ATOM     10  CG2 ILE B   1      -2.568   3.877   4.350  0.00  0.00    +0.000 C 
BRANCH   9  11
ATOM     11  CG1 ILE B   1      -2.629   1.958   5.915  0.00  0.00    +0.000 C 
ATOM     12  CD1 ILE B   1      -1.147   1.907   6.049  0.00  0.00    +0.000 C 
ENDBRANCH   9  11
ENDBRANCH   1   9
TORSDOF 5
