REMARK  Name = /storage/kiran-stuff/aaRS/phase2/energy_scoring/vina_182jobs/anc_thrrs_cat_zn_ILE_ILE/ligand.h.pdb
REMARK  7 active torsions:
REMARK  status: ('A' for Active; 'I' for Inactive)
REMARK    1  A    between atoms: N_1  and  CA_2
REMARK    2  A    between atoms: CA_2  and  C_3
REMARK    3  A    between atoms: CA_2  and  CB_5
REMARK    4  A    between atoms: C_3  and  O_4
REMARK    5  A    between atoms: CB_5  and  CG1_6
REMARK    6  A    between atoms: CB_5  and  CG2_7
REMARK    7  A    between atoms: CG1_6  and  CD1_8
REMARK                            x       y       z     vdW  Elec       q    Type
REMARK                         _______ _______ _______ _____ _____    ______ ____
ROOT
ATOM      1  CA  ILE B   1      -4.291   2.129   4.828  0.00  0.00    +0.000 C 
ENDROOT
BRANCH   1   2
ATOM      2  N   ILE B   1      -4.862   2.363   3.497  0.00  0.00    +0.000 NA
ATOM      3  H   ILE B   1      -4.517   1.654   2.850  0.00  0.00    +0.000 HD
ATOM      4  H   ILE B   1      -4.587   3.287   3.167  0.00  0.00    +0.000 HD
ENDBRANCH   1   2
BRANCH   1   5
ATOM      5  C   ILE B   1      -4.793   3.175   5.810  0.00  0.00    +0.000 C 
ATOM      6  OXT ILE B   1      -5.506   4.087   5.396  0.00  0.00    +0.000 OA
BRANCH   5   7
ATOM      7  O   ILE B   1      -4.516   3.090   7.010  0.00  0.00    +0.000 OA
ATOM      8  H   ILE B   1      -3.972   2.391   7.316  0.00  0.00    +0.000 HD
ENDBRANCH   5   7
ENDBRANCH   1   5
BRANCH   1   9
ATOM      9  CB  ILE B   1      -2.756   2.115   4.704  0.00  0.00    +0.000 C 
ATOM     10  CG2 ILE B   1      -2.226   3.475   4.365  0.00  0.00    +0.000 C 
BRANCH   9  11
ATOM     11  CG1 ILE B   1      -2.110   1.570   5.945  0.00  0.00    +0.000 C 
ATOM     12  CD1 ILE B   1      -0.624   1.593   5.857  0.00  0.00    +0.000 C 
ENDBRANCH   9  11
ENDBRANCH   1   9
TORSDOF 5
