REMARK  Name = /storage/kiran-stuff/aaRS/phase2/energy_scoring/vina_182jobs/anc_thrrs_cat_zn_TRP_TRP/ligand.h.pdb
REMARK  5 active torsions:
REMARK  status: ('A' for Active; 'I' for Inactive)
REMARK    1  A    between atoms: N_1  and  CA_2
REMARK    2  A    between atoms: CA_2  and  C_3
REMARK    3  A    between atoms: CA_2  and  CB_5
REMARK    4  A    between atoms: C_3  and  OXT_15
REMARK    5  A    between atoms: CB_5  and  CG_6
REMARK                            x       y       z     vdW  Elec       q    Type
REMARK                         _______ _______ _______ _____ _____    ______ ____
ROOT
ATOM      1  CB  TRP B   1       7.677   8.516 -17.523  0.00  0.00    +0.000 C 
ENDROOT
BRANCH   1   2
ATOM      2  CG  TRP B   1       6.713   8.654 -16.427  0.00  0.00    +0.000 C 
ATOM      3  CD1 TRP B   1       5.375   8.904 -16.535  0.00  0.00    +0.000 C 
ATOM      4  CD2 TRP B   1       6.991   8.524 -15.037  0.00  0.00    +0.000 C 
ATOM      5  NE1 TRP B   1       4.826   8.954 -15.329  0.00  0.00    +0.000 NA
ATOM      6  CE2 TRP B   1       5.765   8.725 -14.367  0.00  0.00    +0.000 C 
ATOM      7  CE3 TRP B   1       8.129   8.280 -14.303  0.00  0.00    +0.000 C 
ATOM      8  CZ2 TRP B   1       5.672   8.678 -12.992  0.00  0.00    +0.000 C 
ATOM      9  CZ3 TRP B   1       8.038   8.224 -12.944  0.00  0.00    +0.000 C 
ATOM     10  CH2 TRP B   1       6.820   8.421 -12.268  0.00  0.00    +0.000 C 
ENDBRANCH   1   2
BRANCH   1  11
ATOM     11  CA  TRP B   1       8.262   7.074 -17.608  0.00  0.00    +0.000 C 
BRANCH  11  12
ATOM     12  N   TRP B   1       9.564   7.097 -18.248  0.00  0.00    +0.000 NA
ATOM     13  H   TRP B   1       9.936   6.149 -18.298  0.00  0.00    +0.000 HD
ATOM     14  H   TRP B   1      10.199   7.683 -17.706  0.00  0.00    +0.000 HD
ENDBRANCH  11  12
BRANCH  11  15
ATOM     15  C   TRP B   1       7.379   6.140 -18.374  0.00  0.00    +0.000 C 
ATOM     16  O   TRP B   1       6.479   6.506 -19.115  0.00  0.00    +0.000 OA
BRANCH  15  17
ATOM     17  OXT TRP B   1       7.605   4.929 -18.279  0.00  0.00    +0.000 OA
ATOM     18  H   TRP B   1       8.289   4.623 -17.717  0.00  0.00    +0.000 HD
ENDBRANCH  15  17
ENDBRANCH  11  15
ENDBRANCH   1  11
TORSDOF 5
