REMARK  Name = /storage/kiran-stuff/aaRS/phase2/energy_scoring/vina_182jobs/anc_thrrs_cat_zn_TRP_TRP/ligand.h.pdb
REMARK  5 active torsions:
REMARK  status: ('A' for Active; 'I' for Inactive)
REMARK    1  A    between atoms: N_1  and  CA_2
REMARK    2  A    between atoms: CA_2  and  C_3
REMARK    3  A    between atoms: CA_2  and  CB_5
REMARK    4  A    between atoms: C_3  and  OXT_15
REMARK    5  A    between atoms: CB_5  and  CG_6
REMARK                            x       y       z     vdW  Elec       q    Type
REMARK                         _______ _______ _______ _____ _____    ______ ____
ROOT
ATOM      1  CB  TRP B   1       7.542   8.537 -17.245  0.00  0.00    +0.000 C 
ENDROOT
BRANCH   1   2
ATOM      2  CG  TRP B   1       6.564   8.679 -16.162  0.00  0.00    +0.000 C 
ATOM      3  CD1 TRP B   1       5.224   8.905 -16.289  0.00  0.00    +0.000 C 
ATOM      4  CD2 TRP B   1       6.829   8.580 -14.767  0.00  0.00    +0.000 C 
ATOM      5  NE1 TRP B   1       4.661   8.968 -15.090  0.00  0.00    +0.000 NA
ATOM      6  CE2 TRP B   1       5.593   8.773 -14.114  0.00  0.00    +0.000 C 
ATOM      7  CE3 TRP B   1       7.963   8.369 -14.016  0.00  0.00    +0.000 C 
ATOM      8  CZ2 TRP B   1       5.485   8.750 -12.740  0.00  0.00    +0.000 C 
ATOM      9  CZ3 TRP B   1       7.858   8.337 -12.658  0.00  0.00    +0.000 C 
ATOM     10  CH2 TRP B   1       6.629   8.526 -11.999  0.00  0.00    +0.000 C 
ENDBRANCH   1   2
BRANCH   1  11
ATOM     11  CA  TRP B   1       8.008   7.060 -17.421  0.00  0.00    +0.000 C 
BRANCH  11  12
ATOM     12  N   TRP B   1       8.964   6.961 -18.508  0.00  0.00    +0.000 NA
ATOM     13  H   TRP B   1       9.261   5.991 -18.613  0.00  0.00    +0.000 HD
ATOM     14  H   TRP B   1       9.775   7.544 -18.302  0.00  0.00    +0.000 HD
ENDBRANCH  11  12
BRANCH  11  15
ATOM     15  C   TRP B   1       6.872   6.130 -17.708  0.00  0.00    +0.000 C 
ATOM     16  O   TRP B   1       5.714   6.492 -17.850  0.00  0.00    +0.000 OA
BRANCH  15  17
ATOM     17  OXT TRP B   1       7.134   4.931 -17.850  0.00  0.00    +0.000 OA
ATOM     18  H   TRP B   1       8.015   4.628 -17.746  0.00  0.00    +0.000 HD
ENDBRANCH  15  17
ENDBRANCH  11  15
ENDBRANCH   1  11
TORSDOF 5
