REMARK  Name = /storage/kiran-stuff/aaRS/phase2/energy_scoring/vina_182jobs/COMPETITION_FULL_anc_prors_PRO_vs_GLU_GLU/ligand.h.pdb
REMARK  2 active torsions:
REMARK  status: ('A' for Active; 'I' for Inactive)
REMARK    1  A    between atoms: CA_2  and  C_3
REMARK    2  A    between atoms: C_3  and  O_4
REMARK                            x       y       z     vdW  Elec       q    Type
REMARK                         _______ _______ _______ _____ _____    ______ ____
ROOT
ATOM      1  N   PRO B   1     -13.987  -9.340   7.160  0.00  0.00    +0.000 NA
ATOM      2  CA  PRO B   1     -13.565  -9.514   5.750  0.00  0.00    +0.000 C 
ATOM      3  CB  PRO B   1     -12.146 -10.031   5.838  0.00  0.00    +0.000 C 
ATOM      4  CG  PRO B   1     -12.087 -10.695   7.158  0.00  0.00    +0.000 C 
ATOM      5  CD  PRO B   1     -12.969  -9.889   8.057  0.00  0.00    +0.000 C 
ATOM      6  H   PRO B   1     -14.869  -9.828   7.311  0.00  0.00    +0.000 HD
ENDROOT
BRANCH   2   7
ATOM      7  C   PRO B   1     -14.452 -10.540   5.010  0.00  0.00    +0.000 C 
ATOM      8  OXT PRO B   1     -13.998 -11.081   4.010  0.00  0.00    +0.000 OA
BRANCH   7   9
ATOM      9  O   PRO B   1     -15.571 -10.796   5.428  0.00  0.00    +0.000 OA
ATOM     10  H   PRO B   1     -15.893 -10.367   6.196  0.00  0.00    +0.000 HD
ENDBRANCH   7   9
ENDBRANCH   2   7
TORSDOF 2
