REMARK  Name = /storage/kiran-stuff/aaRS/phase2/energy_scoring/vina_182jobs/COMPETITION_FULL_anc_prors_PRO_vs_GLU_GLU/ligand.h.pdb
REMARK  2 active torsions:
REMARK  status: ('A' for Active; 'I' for Inactive)
REMARK    1  A    between atoms: CA_2  and  C_3
REMARK    2  A    between atoms: C_3  and  O_4
REMARK                            x       y       z     vdW  Elec       q    Type
REMARK                         _______ _______ _______ _____ _____    ______ ____
ROOT
ATOM      1  N   PRO B   1     -14.341  -9.481   6.972  0.00  0.00    +0.000 NA
ATOM      2  CA  PRO B   1     -13.579  -9.265   5.719  0.00  0.00    +0.000 C 
ATOM      3  CB  PRO B   1     -12.129  -9.259   6.151  0.00  0.00    +0.000 C 
ATOM      4  CG  PRO B   1     -12.121 -10.065   7.391  0.00  0.00    +0.000 C 
ATOM      5  CD  PRO B   1     -13.421  -9.776   8.071  0.00  0.00    +0.000 C 
ATOM      6  H   PRO B   1     -14.981 -10.265   6.847  0.00  0.00    +0.000 HD
ENDROOT
BRANCH   2   7
ATOM      7  C   PRO B   1     -13.818 -10.403   4.701  0.00  0.00    +0.000 C 
ATOM      8  OXT PRO B   1     -13.299 -10.308   3.597  0.00  0.00    +0.000 OA
BRANCH   7   9
ATOM      9  O   PRO B   1     -14.505 -11.365   5.009  0.00  0.00    +0.000 OA
ATOM     10  H   PRO B   1     -14.890 -11.412   5.862  0.00  0.00    +0.000 HD
ENDBRANCH   7   9
ENDBRANCH   2   7
TORSDOF 2
