REMARK  Name = /storage/kiran-stuff/aaRS/phase2/energy_scoring/vina_182jobs/anc_thrrs_cat_zn_GLN_GLN/ligand.h.pdb
REMARK  6 active torsions:
REMARK  status: ('A' for Active; 'I' for Inactive)
REMARK    1  A    between atoms: N_1  and  CA_2
REMARK    2  A    between atoms: CA_2  and  C_3
REMARK    3  A    between atoms: CA_2  and  CB_5
REMARK    4  A    between atoms: C_3  and  O_4
REMARK    5  A    between atoms: CB_5  and  CG_6
REMARK    6  A    between atoms: CG_6  and  CD_7
REMARK                            x       y       z     vdW  Elec       q    Type
REMARK                         _______ _______ _______ _____ _____    ______ ____
ROOT
ATOM      1  CA  GLN B   1      -4.409  -0.637   6.984  0.00  0.00    +0.000 C 
ENDROOT
BRANCH   1   2
ATOM      2  N   GLN B   1      -3.285  -1.016   7.804  0.00  0.00    +0.000 NA
ATOM      3  H   GLN B   1      -2.806  -0.178   8.132  0.00  0.00    +0.000 HD
ATOM      4  H   GLN B   1      -2.640  -1.584   7.256  0.00  0.00    +0.000 HD
ENDBRANCH   1   2
BRANCH   1   5
ATOM      5  C   GLN B   1      -5.140  -1.873   6.481  0.00  0.00    +0.000 C 
ATOM      6  OXT GLN B   1      -5.650  -1.866   5.378  0.00  0.00    +0.000 OA
BRANCH   5   7
ATOM      7  O   GLN B   1      -5.234  -2.874   7.180  0.00  0.00    +0.000 OA
ATOM      8  H   GLN B   1      -4.844  -2.889   8.032  0.00  0.00    +0.000 HD
ENDBRANCH   5   7
ENDBRANCH   1   5
BRANCH   1   9
ATOM      9  CB  GLN B   1      -3.964   0.249   5.819  0.00  0.00    +0.000 C 
BRANCH   9  10
ATOM     10  CG  GLN B   1      -2.842   1.189   6.178  0.00  0.00    +0.000 C 
BRANCH  10  11
ATOM     11  CD  GLN B   1      -2.595   2.224   5.113  0.00  0.00    +0.000 C 
ATOM     12  OE1 GLN B   1      -3.442   2.485   4.281  0.00  0.00    +0.000 OA
ATOM     13  NE2 GLN B   1      -1.432   2.890   5.136  0.00  0.00    +0.000 N 
ATOM     14  H   GLN B   1      -1.242   3.573   4.452  0.00  0.00    +0.000 HD
ATOM     15  H   GLN B   1      -0.768   2.698   5.836  0.00  0.00    +0.000 HD
ENDBRANCH  10  11
ENDBRANCH   9  10
ENDBRANCH   1   9
TORSDOF 6
