REMARK  Name = /storage/kiran-stuff/aaRS/phase2/energy_scoring/vina_182jobs/anc_thrrs_cat_zn_GLN_GLN/ligand.h.pdb
REMARK  6 active torsions:
REMARK  status: ('A' for Active; 'I' for Inactive)
REMARK    1  A    between atoms: N_1  and  CA_2
REMARK    2  A    between atoms: CA_2  and  C_3
REMARK    3  A    between atoms: CA_2  and  CB_5
REMARK    4  A    between atoms: C_3  and  O_4
REMARK    5  A    between atoms: CB_5  and  CG_6
REMARK    6  A    between atoms: CG_6  and  CD_7
REMARK                            x       y       z     vdW  Elec       q    Type
REMARK                         _______ _______ _______ _____ _____    ______ ____
ROOT
ATOM      1  CA  GLN B   1      -4.146  -0.359   6.685  0.00  0.00    +0.000 C 
ENDROOT
BRANCH   1   2
ATOM      2  N   GLN B   1      -2.949  -0.996   7.175  0.00  0.00    +0.000 NA
ATOM      3  H   GLN B   1      -2.272  -0.284   7.447  0.00  0.00    +0.000 HD
ATOM      4  H   GLN B   1      -2.550  -1.581   6.441  0.00  0.00    +0.000 HD
ENDBRANCH   1   2
BRANCH   1   5
ATOM      5  C   GLN B   1      -5.172  -1.403   6.272  0.00  0.00    +0.000 C 
ATOM      6  OXT GLN B   1      -6.009  -1.129   5.434  0.00  0.00    +0.000 OA
BRANCH   5   7
ATOM      7  O   GLN B   1      -5.175  -2.516   6.782  0.00  0.00    +0.000 OA
ATOM      8  H   GLN B   1      -4.534  -2.737   7.429  0.00  0.00    +0.000 HD
ENDBRANCH   5   7
ENDBRANCH   1   5
BRANCH   1   9
ATOM      9  CB  GLN B   1      -3.829   0.588   5.526  0.00  0.00    +0.000 C 
BRANCH   9  10
ATOM     10  CG  GLN B   1      -2.616   1.447   5.772  0.00  0.00    +0.000 C 
BRANCH  10  11
ATOM     11  CD  GLN B   1      -2.591   2.672   4.896  0.00  0.00    +0.000 C 
ATOM     12  OE1 GLN B   1      -3.607   3.098   4.382  0.00  0.00    +0.000 OA
ATOM     13  NE2 GLN B   1      -1.425   3.314   4.739  0.00  0.00    +0.000 N 
ATOM     14  H   GLN B   1      -1.378   4.118   4.172  0.00  0.00    +0.000 HD
ATOM     15  H   GLN B   1      -0.616   2.982   5.190  0.00  0.00    +0.000 HD
ENDBRANCH  10  11
ENDBRANCH   9  10
ENDBRANCH   1   9
TORSDOF 6
