REMARK  Name = /storage/kiran-stuff/aaRS/phase2/energy_scoring/vina_182jobs/deep_editing_pro_THR/ligand.h.pdb
REMARK  355 active torsions:
REMARK  status: ('A' for Active; 'I' for Inactive)
REMARK    1  A    between atoms: OP3_1  and  P_2
REMARK    2  A    between atoms: P_2  and  OP1_3
REMARK    3  A    between atoms: P_2  and  O5'_5
REMARK    4  A    between atoms: O5'_5  and  C5'_6
REMARK    5  A    between atoms: C5'_6  and  C4'_7
REMARK    6  A    between atoms: C3'_9  and  O3'_10
REMARK    7  A    between atoms: O3'_10  and  P_22
REMARK    8  A    between atoms: C2'_11  and  O2'_12
REMARK    9  A    between atoms: C1'_13  and  N1_14
REMARK   10  A    between atoms: P_22  and  OP1_23
REMARK   11  A    between atoms: P_22  and  O5'_25
REMARK   12  A    between atoms: O5'_25  and  C5'_26
REMARK   13  A    between atoms: C5'_26  and  C4'_27
REMARK   14  A    between atoms: C3'_29  and  O3'_30
REMARK   15  A    between atoms: O3'_30  and  P_42
REMARK   16  A    between atoms: C2'_31  and  O2'_32
REMARK   17  A    between atoms: C1'_33  and  N1_34
REMARK   18  A    between atoms: P_42  and  OP1_43
REMARK   19  A    between atoms: P_42  and  O5'_45
REMARK   20  A    between atoms: O5'_45  and  C5'_46
REMARK   21  A    between atoms: C5'_46  and  C4'_47
REMARK   22  A    between atoms: C3'_49  and  O3'_50
REMARK   23  A    between atoms: O3'_50  and  P_64
REMARK   24  A    between atoms: C2'_51  and  O2'_52
REMARK   25  A    between atoms: C1'_53  and  N9_54
REMARK   26  A    between atoms: C6_58  and  N6_59
REMARK   27  A    between atoms: P_64  and  OP1_65
REMARK   28  A    between atoms: P_64  and  O5'_67
REMARK   29  A    between atoms: O5'_67  and  C5'_68
REMARK   30  A    between atoms: C5'_68  and  C4'_69
REMARK   31  A    between atoms: C3'_71  and  O3'_72
REMARK   32  A    between atoms: O3'_72  and  P_86
REMARK   33  A    between atoms: C2'_73  and  O2'_74
REMARK   34  A    between atoms: C1'_75  and  N9_76
REMARK   35  A    between atoms: C6_80  and  N6_81
REMARK   36  A    between atoms: P_86  and  OP2_88
REMARK   37  A    between atoms: P_86  and  O5'_89
REMARK   38  A    between atoms: O5'_89  and  C5'_90
REMARK   39  A    between atoms: C5'_90  and  C4'_91
REMARK   40  A    between atoms: C3'_93  and  O3'_94
REMARK   41  A    between atoms: O3'_94  and  P_106
REMARK   42  A    between atoms: C2'_95  and  O2'_96
REMARK   43  A    between atoms: C1'_97  and  N1_98
REMARK   44  A    between atoms: P_106  and  OP2_108
REMARK   45  A    between atoms: P_106  and  O5'_109
REMARK   46  A    between atoms: O5'_109  and  C5'_110
REMARK   47  A    between atoms: C5'_110  and  C4'_111
REMARK   48  A    between atoms: C3'_113  and  O3'_114
REMARK   49  A    between atoms: O3'_114  and  P_128
REMARK   50  A    between atoms: C2'_115  and  O2'_116
REMARK   51  A    between atoms: C1'_117  and  N9_118
REMARK   52  A    between atoms: P_128  and  OP2_130
REMARK   53  A    between atoms: P_128  and  O5'_131
REMARK   54  A    between atoms: O5'_131  and  C5'_132
REMARK   55  A    between atoms: C5'_132  and  C4'_133
REMARK   56  A    between atoms: C3'_135  and  O3'_136
REMARK   57  A    between atoms: O3'_136  and  P_148
REMARK   58  A    between atoms: C2'_137  and  O2'_138
REMARK   59  A    between atoms: C1'_139  and  N1_140
REMARK   60  A    between atoms: P_148  and  OP2_150
REMARK   61  A    between atoms: P_148  and  O5'_151
REMARK   62  A    between atoms: O5'_151  and  C5'_152
REMARK   63  A    between atoms: C5'_152  and  C4'_153
REMARK   64  A    between atoms: C3'_155  and  O3'_156
REMARK   65  A    between atoms: O3'_156  and  P_168
REMARK   66  A    between atoms: C2'_157  and  O2'_158
REMARK   67  A    between atoms: C1'_159  and  N1_160
REMARK   68  A    between atoms: P_168  and  OP1_169
REMARK   69  A    between atoms: P_168  and  O5'_171
REMARK   70  A    between atoms: O5'_171  and  C5'_172
REMARK   71  A    between atoms: C5'_172  and  C4'_173
REMARK   72  A    between atoms: C2'_177  and  O2'_178
REMARK   73  A    between atoms: P_190  and  OP1_191
REMARK   74  A    between atoms: C2'_199  and  O2'_200
REMARK   75  A    between atoms: C1'_201  and  N1_202
REMARK   76  A    between atoms: P_210  and  OP2_212
REMARK   77  A    between atoms: C2'_219  and  O2'_220
REMARK   78  A    between atoms: C1'_221  and  N1_222
REMARK   79  A    between atoms: P_230  and  OP2_232
REMARK   80  A    between atoms: C2'_239  and  O2'_240
REMARK   81  A    between atoms: C1'_241  and  N1_242
REMARK   82  A    between atoms: P_250  and  OP2_252
REMARK   83  A    between atoms: C2'_259  and  O2'_260
REMARK   84  A    between atoms: C1'_261  and  N1_262
REMARK   85  A    between atoms: P_270  and  OP2_272
REMARK   86  A    between atoms: C2'_279  and  O2'_280
REMARK   87  A    between atoms: C1'_281  and  N9_282
REMARK   88  A    between atoms: P_292  and  OP1_293
REMARK   89  A    between atoms: C2'_301  and  O2'_302
REMARK   90  A    between atoms: C1'_303  and  N1_304
REMARK   91  A    between atoms: P_312  and  OP1_313
REMARK   92  A    between atoms: C2'_321  and  O2'_322
REMARK   93  A    between atoms: C1'_323  and  N1_324
REMARK   94  A    between atoms: P_332  and  OP1_333
REMARK   95  A    between atoms: C2'_341  and  O2'_342
REMARK   96  A    between atoms: C1'_343  and  N1_344
REMARK   97  A    between atoms: P_352  and  OP1_353
REMARK   98  A    between atoms: C2'_361  and  O2'_362
REMARK   99  A    between atoms: C1'_363  and  N9_364
REMARK  100  A    between atoms: P_375  and  OP2_377
REMARK  101  A    between atoms: C2'_384  and  O2'_385
REMARK  102  A    between atoms: C1'_386  and  N9_387
REMARK  103  A    between atoms: P_397  and  OP2_399
REMARK  104  A    between atoms: C2'_406  and  O2'_407
REMARK  105  A    between atoms: C1'_408  and  N9_409
REMARK  106  A    between atoms: P_419  and  OP2_421
REMARK  107  A    between atoms: C2'_428  and  O2'_429
REMARK  108  A    between atoms: C1'_430  and  N9_431
REMARK  109  A    between atoms: P_441  and  OP2_443
REMARK  110  A    between atoms: C2'_450  and  O2'_451
REMARK  111  A    between atoms: C1'_452  and  N1_453
REMARK  112  A    between atoms: P_461  and  OP2_463
REMARK  113  A    between atoms: C2'_470  and  O2'_471
REMARK  114  A    between atoms: C1'_472  and  N1_473
REMARK  115  A    between atoms: P_481  and  OP1_482
REMARK  116  A    between atoms: C2'_490  and  O2'_491
REMARK  117  A    between atoms: C1'_492  and  N1_493
REMARK  118  A    between atoms: P_501  and  OP1_502
REMARK  119  A    between atoms: C2'_510  and  O2'_511
REMARK  120  A    between atoms: C1'_512  and  N1_513
REMARK  121  A    between atoms: P_521  and  OP1_522
REMARK  122  A    between atoms: C2'_530  and  O2'_531
REMARK  123  A    between atoms: C1'_532  and  N1_533
REMARK  124  A    between atoms: P_541  and  OP1_542
REMARK  125  A    between atoms: C2'_550  and  O2'_551
REMARK  126  A    between atoms: C1'_552  and  N1_553
REMARK  127  A    between atoms: P_561  and  OP2_563
REMARK  128  A    between atoms: C2'_570  and  O2'_571
REMARK  129  A    between atoms: C1'_572  and  N1_573
REMARK  130  A    between atoms: P_581  and  OP2_583
REMARK  131  A    between atoms: C2'_590  and  O2'_591
REMARK  132  A    between atoms: C1'_592  and  N9_593
REMARK  133  A    between atoms: P_603  and  OP2_605
REMARK  134  A    between atoms: C2'_612  and  O2'_613
REMARK  135  A    between atoms: C1'_614  and  N9_615
REMARK  136  A    between atoms: P_625  and  OP2_627
REMARK  137  A    between atoms: C2'_634  and  O2'_635
REMARK  138  A    between atoms: C1'_636  and  N9_637
REMARK  139  A    between atoms: P_647  and  OP2_649
REMARK  140  A    between atoms: C2'_656  and  O2'_657
REMARK  141  A    between atoms: C1'_658  and  N9_659
REMARK  142  A    between atoms: P_669  and  OP2_671
REMARK  143  A    between atoms: C2'_678  and  O2'_679
REMARK  144  A    between atoms: C1'_680  and  N1_681
REMARK  145  A    between atoms: P_689  and  OP2_691
REMARK  146  A    between atoms: C2'_698  and  O2'_699
REMARK  147  A    between atoms: C1'_700  and  N9_701
REMARK  148  A    between atoms: P_711  and  OP1_712
REMARK  149  A    between atoms: C2'_720  and  O2'_721
REMARK  150  A    between atoms: C1'_722  and  N9_723
REMARK  151  A    between atoms: C6_727  and  N6_728
REMARK  152  A    between atoms: P_733  and  OP1_734
REMARK  153  A    between atoms: C2'_742  and  O2'_743
REMARK  154  A    between atoms: C1'_744  and  N1_745
REMARK  155  A    between atoms: P_753  and  OP1_754
REMARK  156  A    between atoms: C2'_762  and  O2'_763
REMARK  157  A    between atoms: C1'_764  and  N9_765
REMARK  158  A    between atoms: C6_769  and  N6_770
REMARK  159  A    between atoms: P_775  and  OP1_776
REMARK  160  A    between atoms: C2'_784  and  O2'_785
REMARK  161  A    between atoms: C1'_786  and  N1_787
REMARK  162  A    between atoms: P_795  and  OP2_797
REMARK  163  A    between atoms: C2'_804  and  O2'_805
REMARK  164  A    between atoms: C1'_806  and  N1_807
REMARK  165  A    between atoms: P_815  and  OP1_816
REMARK  166  A    between atoms: C2'_824  and  O2'_825
REMARK  167  A    between atoms: C1'_826  and  N1_827
REMARK  168  A    between atoms: P_835  and  OP2_837
REMARK  169  A    between atoms: C2'_844  and  O2'_845
REMARK  170  A    between atoms: C1'_846  and  N1_847
REMARK  171  A    between atoms: P_855  and  OP2_857
REMARK  172  A    between atoms: C2'_864  and  O2'_865
REMARK  173  A    between atoms: C1'_866  and  N1_867
REMARK  174  A    between atoms: P_875  and  OP1_876
REMARK  175  A    between atoms: C2'_884  and  O2'_885
REMARK  176  A    between atoms: C1'_886  and  N9_887
REMARK  177  A    between atoms: C6_891  and  N6_892
REMARK  178  A    between atoms: P_897  and  OP1_898
REMARK  179  A    between atoms: C2'_906  and  O2'_907
REMARK  180  A    between atoms: C1'_908  and  N1_909
REMARK  181  A    between atoms: P_917  and  OP1_918
REMARK  182  A    between atoms: C2'_926  and  O2'_927
REMARK  183  A    between atoms: C1'_928  and  N1_929
REMARK  184  A    between atoms: P_937  and  OP1_938
REMARK  185  A    between atoms: C2'_946  and  O2'_947
REMARK  186  A    between atoms: C1'_948  and  N1_949
REMARK  187  A    between atoms: P_957  and  OP1_958
REMARK  188  A    between atoms: C2'_966  and  O2'_967
REMARK  189  A    between atoms: C1'_968  and  N1_969
REMARK  190  A    between atoms: P_977  and  OP1_978
REMARK  191  A    between atoms: C2'_986  and  O2'_987
REMARK  192  A    between atoms: C1'_988  and  N9_989
REMARK  193  A    between atoms: C6_993  and  N6_994
REMARK  194  A    between atoms: P_999  and  OP1_1000
REMARK  195  A    between atoms: C2'_1008  and  O2'_1009
REMARK  196  A    between atoms: C1'_1010  and  N1_1011
REMARK  197  A    between atoms: P_1019  and  OP1_1020
REMARK  198  A    between atoms: C2'_1028  and  O2'_1029
REMARK  199  A    between atoms: C1'_1030  and  N1_1031
REMARK  200  A    between atoms: P_1039  and  OP2_1041
REMARK  201  A    between atoms: C2'_1048  and  O2'_1049
REMARK  202  A    between atoms: C1'_1050  and  N1_1051
REMARK  203  A    between atoms: P_1059  and  OP2_1061
REMARK  204  A    between atoms: C2'_1068  and  O2'_1069
REMARK  205  A    between atoms: C1'_1070  and  N1_1071
REMARK  206  A    between atoms: P_1079  and  OP2_1081
REMARK  207  A    between atoms: C2'_1088  and  O2'_1089
REMARK  208  A    between atoms: C1'_1090  and  N9_1091
REMARK  209  A    between atoms: P_1101  and  OP2_1103
REMARK  210  A    between atoms: C2'_1110  and  O2'_1111
REMARK  211  A    between atoms: C1'_1112  and  N9_1113
REMARK  212  A    between atoms: P_1123  and  OP2_1125
REMARK  213  A    between atoms: C2'_1132  and  O2'_1133
REMARK  214  A    between atoms: C1'_1134  and  N9_1135
REMARK  215  A    between atoms: P_1145  and  OP1_1146
REMARK  216  A    between atoms: C2'_1154  and  O2'_1155
REMARK  217  A    between atoms: C1'_1156  and  N9_1157
REMARK  218  A    between atoms: C6_1161  and  N6_1162
REMARK  219  A    between atoms: P_1167  and  OP1_1168
REMARK  220  A    between atoms: C2'_1176  and  O2'_1177
REMARK  221  A    between atoms: C1'_1178  and  N9_1179
REMARK  222  A    between atoms: C6_1183  and  N6_1184
REMARK  223  A    between atoms: P_1189  and  OP1_1190
REMARK  224  A    between atoms: C2'_1198  and  O2'_1199
REMARK  225  A    between atoms: C1'_1200  and  N1_1201
REMARK  226  A    between atoms: P_1209  and  OP1_1210
REMARK  227  A    between atoms: C2'_1218  and  O2'_1219
REMARK  228  A    between atoms: C1'_1220  and  N9_1221
REMARK  229  A    between atoms: C6_1225  and  N6_1226
REMARK  230  A    between atoms: P_1231  and  OP1_1232
REMARK  231  A    between atoms: C2'_1240  and  O2'_1241
REMARK  232  A    between atoms: C1'_1242  and  N9_1243
REMARK  233  A    between atoms: P_1254  and  OP2_1256
REMARK  234  A    between atoms: C2'_1263  and  O2'_1264
REMARK  235  A    between atoms: C1'_1265  and  N9_1266
REMARK  236  A    between atoms: C6_1270  and  N6_1271
REMARK  237  A    between atoms: P_1276  and  OP1_1277
REMARK  238  A    between atoms: C3'_1283  and  O3'_1284
REMARK  239  A    between atoms: O3'_1284  and  P_1296
REMARK  240  A    between atoms: C2'_1285  and  O2'_1286
REMARK  241  A    between atoms: P_1296  and  OP1_1297
REMARK  242  A    between atoms: P_1296  and  O5'_1299
REMARK  243  A    between atoms: O5'_1299  and  C5'_1300
REMARK  244  A    between atoms: C5'_1300  and  C4'_1301
REMARK  245  A    between atoms: C3'_1303  and  O3'_1304
REMARK  246  A    between atoms: O3'_1304  and  P_1316
REMARK  247  A    between atoms: C2'_1305  and  O2'_1306
REMARK  248  A    between atoms: C1'_1307  and  N1_1308
REMARK  249  A    between atoms: P_1316  and  OP1_1317
REMARK  250  A    between atoms: P_1316  and  O5'_1319
REMARK  251  A    between atoms: O5'_1319  and  C5'_1320
REMARK  252  A    between atoms: C5'_1320  and  C4'_1321
REMARK  253  A    between atoms: C3'_1323  and  O3'_1324
REMARK  254  A    between atoms: O3'_1324  and  P_1338
REMARK  255  A    between atoms: C2'_1325  and  O2'_1326
REMARK  256  A    between atoms: C1'_1327  and  N9_1328
REMARK  257  A    between atoms: C6_1332  and  N6_1333
REMARK  258  A    between atoms: P_1338  and  OP1_1339
REMARK  259  A    between atoms: P_1338  and  O5'_1341
REMARK  260  A    between atoms: O5'_1341  and  C5'_1342
REMARK  261  A    between atoms: C5'_1342  and  C4'_1343
REMARK  262  A    between atoms: C3'_1345  and  O3'_1346
REMARK  263  A    between atoms: O3'_1346  and  P_1358
REMARK  264  A    between atoms: C2'_1347  and  O2'_1348
REMARK  265  A    between atoms: C1'_1349  and  N1_1350
REMARK  266  A    between atoms: P_1358  and  OP1_1359
REMARK  267  A    between atoms: P_1358  and  O5'_1361
REMARK  268  A    between atoms: O5'_1361  and  C5'_1362
REMARK  269  A    between atoms: C5'_1362  and  C4'_1363
REMARK  270  A    between atoms: C3'_1365  and  O3'_1366
REMARK  271  A    between atoms: O3'_1366  and  P_1380
REMARK  272  A    between atoms: C2'_1367  and  O2'_1368
REMARK  273  A    between atoms: C1'_1369  and  N9_1370
REMARK  274  A    between atoms: C6_1374  and  N6_1375
REMARK  275  A    between atoms: P_1380  and  OP1_1381
REMARK  276  A    between atoms: P_1380  and  O5'_1383
REMARK  277  A    between atoms: O5'_1383  and  C5'_1384
REMARK  278  A    between atoms: C5'_1384  and  C4'_1385
REMARK  279  A    between atoms: C3'_1387  and  O3'_1388
REMARK  280  A    between atoms: O3'_1388  and  P_1402
REMARK  281  A    between atoms: C2'_1389  and  O2'_1390
REMARK  282  A    between atoms: C1'_1391  and  N9_1392
REMARK  283  A    between atoms: C6_1396  and  N6_1397
REMARK  284  A    between atoms: P_1402  and  OP2_1404
REMARK  285  A    between atoms: P_1402  and  O5'_1405
REMARK  286  A    between atoms: O5'_1405  and  C5'_1406
REMARK  287  A    between atoms: C5'_1406  and  C4'_1407
REMARK  288  A    between atoms: C3'_1409  and  O3'_1410
REMARK  289  A    between atoms: O3'_1410  and  P_1424
REMARK  290  A    between atoms: C2'_1411  and  O2'_1412
REMARK  291  A    between atoms: C1'_1413  and  N9_1414
REMARK  292  A    between atoms: P_1424  and  OP2_1426
REMARK  293  A    between atoms: P_1424  and  O5'_1427
REMARK  294  A    between atoms: O5'_1427  and  C5'_1428
REMARK  295  A    between atoms: C5'_1428  and  C4'_1429
REMARK  296  A    between atoms: C3'_1431  and  O3'_1432
REMARK  297  A    between atoms: O3'_1432  and  P_1446
REMARK  298  A    between atoms: C2'_1433  and  O2'_1434
REMARK  299  A    between atoms: C1'_1435  and  N9_1436
REMARK  300  A    between atoms: P_1446  and  OP2_1448
REMARK  301  A    between atoms: P_1446  and  O5'_1449
REMARK  302  A    between atoms: O5'_1449  and  C5'_1450
REMARK  303  A    between atoms: C5'_1450  and  C4'_1451
REMARK  304  A    between atoms: C3'_1453  and  O3'_1454
REMARK  305  A    between atoms: O3'_1454  and  P_1468
REMARK  306  A    between atoms: C2'_1455  and  O2'_1456
REMARK  307  A    between atoms: C1'_1457  and  N9_1458
REMARK  308  A    between atoms: P_1468  and  OP2_1470
REMARK  309  A    between atoms: P_1468  and  O5'_1471
REMARK  310  A    between atoms: O5'_1471  and  C5'_1472
REMARK  311  A    between atoms: C5'_1472  and  C4'_1473
REMARK  312  A    between atoms: C3'_1475  and  O3'_1476
REMARK  313  A    between atoms: O3'_1476  and  P_1488
REMARK  314  A    between atoms: C2'_1477  and  O2'_1478
REMARK  315  A    between atoms: C1'_1479  and  N1_1480
REMARK  316  A    between atoms: P_1488  and  OP2_1490
REMARK  317  A    between atoms: P_1488  and  O5'_1491
REMARK  318  A    between atoms: O5'_1491  and  C5'_1492
REMARK  319  A    between atoms: C5'_1492  and  C4'_1493
REMARK  320  A    between atoms: C3'_1495  and  O3'_1496
REMARK  321  A    between atoms: O3'_1496  and  P_1508
REMARK  322  A    between atoms: C2'_1497  and  O2'_1498
REMARK  323  A    between atoms: C1'_1499  and  N1_1500
REMARK  324  A    between atoms: P_1508  and  OP1_1509
REMARK  325  A    between atoms: P_1508  and  O5'_1511
REMARK  326  A    between atoms: O5'_1511  and  C5'_1512
REMARK  327  A    between atoms: C5'_1512  and  C4'_1513
REMARK  328  A    between atoms: C3'_1515  and  O3'_1516
REMARK  329  A    between atoms: O3'_1516  and  P_1528
REMARK  330  A    between atoms: C2'_1517  and  O2'_1518
REMARK  331  A    between atoms: C1'_1519  and  N1_1520
REMARK  332  A    between atoms: P_1528  and  OP1_1529
REMARK  333  A    between atoms: P_1528  and  O5'_1531
REMARK  334  A    between atoms: O5'_1531  and  C5'_1532
REMARK  335  A    between atoms: C5'_1532  and  C4'_1533
REMARK  336  A    between atoms: C3'_1535  and  O3'_1536
REMARK  337  A    between atoms: O3'_1536  and  P_1548
REMARK  338  A    between atoms: C2'_1537  and  O2'_1538
REMARK  339  A    between atoms: C1'_1539  and  N1_1540
REMARK  340  A    between atoms: P_1548  and  OP1_1549
REMARK  341  A    between atoms: P_1548  and  O5'_1551
REMARK  342  A    between atoms: O5'_1551  and  C5'_1552
REMARK  343  A    between atoms: C5'_1552  and  C4'_1553
REMARK  344  A    between atoms: C3'_1555  and  O3'_1556
REMARK  345  A    between atoms: O3'_1556  and  P_1568
REMARK  346  A    between atoms: C2'_1557  and  O2'_1558
REMARK  347  A    between atoms: C1'_1559  and  N1_1560
REMARK  348  A    between atoms: P_1568  and  OP1_1569
REMARK  349  A    between atoms: P_1568  and  O5'_1571
REMARK  350  A    between atoms: O5'_1571  and  C5'_1572
REMARK  351  A    between atoms: C5'_1572  and  C4'_1573
REMARK  352  A    between atoms: C3'_1575  and  O3'_1576
REMARK  353  A    between atoms: C2'_1577  and  O2'_1578
REMARK  354  A    between atoms: C1'_1579  and  N9_1580
REMARK  355  A    between atoms: C6_1584  and  N6_1585
REMARK                            x       y       z     vdW  Elec       q    Type
REMARK                         _______ _______ _______ _____ _____    ______ ____
ROOT
ATOM      1  C4' A   B   9      -1.885  15.194  43.300  0.00  0.00    +0.000 C 
ATOM      2  O4' A   B   9      -1.891  13.816  43.796  0.00  0.00    +0.000 OA
ATOM      3  C3' A   B   9      -3.272  15.734  43.609  0.00  0.00    +0.000 C 
ATOM      4  O3' A   B   9      -4.180  15.344  42.578  0.00  0.00    +0.000 OA
ATOM      5  C2' A   B   9      -3.607  15.008  44.908  0.00  0.00    +0.000 C 
ATOM      6  C1' A   B   9      -3.010  13.627  44.639  0.00  0.00    +0.000 C 
ATOM      7  N9  A   B   9      -2.521  12.979  45.864  0.00  0.00    +0.000 N 
ATOM      8  C8  A   B   9      -1.550  13.428  46.722  0.00  0.00    +0.000 A 
ATOM      9  N7  A   B   9      -1.322  12.618  47.734  0.00  0.00    +0.000 NA
ATOM     10  C5  A   B   9      -2.199  11.569  47.516  0.00  0.00    +0.000 A 
ATOM     11  C6  A   B   9      -2.449  10.384  48.228  0.00  0.00    +0.000 C 
ATOM     12  N6  A   B   9      -1.809  10.052  49.358  0.00  0.00    +0.000 NA
ATOM     13  N1  A   B   9      -3.388   9.545  47.741  0.00  0.00    +0.000 NA
ATOM     14  C2  A   B   9      -4.022   9.874  46.610  0.00  0.00    +0.000 C 
ATOM     15  N3  A   B   9      -3.880  10.958  45.852  0.00  0.00    +0.000 N 
ATOM     16  C4  A   B   9      -2.940  11.771  46.367  0.00  0.00    +0.000 A 
ATOM     17  P   U   B  10      -5.331  16.276  42.083  0.00  0.00    +0.000 P 
ATOM     18  OP2 U   B  10      -6.645  15.678  42.429  0.00  0.00    +0.000 OA
ATOM     19  O5' U   B  10      -5.201  16.254  40.494  0.00  0.00    +0.000 OA
ATOM     20  C5' U   B  10      -4.031  16.742  39.844  0.00  0.00    +0.000 C 
ATOM     21  C4' U   B  10      -4.348  17.244  38.457  0.00  0.00    +0.000 C 
ATOM     22  O4' U   B  10      -4.899  16.162  37.661  0.00  0.00    +0.000 OA
ATOM     23  C3' U   B  10      -5.408  18.325  38.377  0.00  0.00    +0.000 C 
ATOM     24  O3' U   B  10      -4.898  19.618  38.687  0.00  0.00    +0.000 OA
ATOM     25  C2' U   B  10      -5.875  18.192  36.931  0.00  0.00    +0.000 C 
ATOM     26  C1' U   B  10      -5.850  16.678  36.742  0.00  0.00    +0.000 C 
ATOM     27  P   U   B  11      -5.902  20.730  39.225  0.00  0.00    +0.000 P 
ATOM     28  OP1 U   B  11      -5.068  21.846  39.749  0.00  0.00    +0.000 OA
ATOM     29  O5' U   B  11      -6.622  21.234  37.900  0.00  0.00    +0.000 OA
ATOM     30  C5' U   B  11      -5.884  21.876  36.856  0.00  0.00    +0.000 C 
ATOM     31  C4' U   B  11      -6.743  22.106  35.636  0.00  0.00    +0.000 C 
ATOM     32  O4' U   B  11      -7.217  20.832  35.119  0.00  0.00    +0.000 OA
ATOM     33  C3' U   B  11      -8.017  22.897  35.859  0.00  0.00    +0.000 C 
ATOM     34  O3' U   B  11      -7.786  24.300  35.925  0.00  0.00    +0.000 OA
ATOM     35  C2' U   B  11      -8.864  22.481  34.663  0.00  0.00    +0.000 C 
ATOM     36  C1' U   B  11      -8.504  20.999  34.543  0.00  0.00    +0.000 C 
ATOM     37  P   U   B  12      -8.755  25.197  36.821  0.00  0.00    +0.000 P 
ATOM     38  OP1 U   B  12      -8.130  26.542  36.902  0.00  0.00    +0.000 OA
ATOM     39  O5' U   B  12     -10.074  25.304  35.934  0.00  0.00    +0.000 OA
ATOM     40  C5' U   B  12     -10.048  25.938  34.657  0.00  0.00    +0.000 C 
ATOM     41  C4' U   B  12     -11.333  25.701  33.898  0.00  0.00    +0.000 C 
ATOM     42  O4' U   B  12     -11.514  24.278  33.663  0.00  0.00    +0.000 OA
ATOM     43  C3' U   B  12     -12.611  26.110  34.607  0.00  0.00    +0.000 C 
ATOM     44  O3' U   B  12     -12.857  27.509  34.541  0.00  0.00    +0.000 OA
ATOM     45  C2' U   B  12     -13.657  25.274  33.877  0.00  0.00    +0.000 C 
ATOM     46  C1' U   B  12     -12.895  23.962  33.677  0.00  0.00    +0.000 C 
ATOM     47  P   C   B  13     -13.629  28.212  35.738  0.00  0.00    +0.000 P 
ATOM     48  OP1 C   B  13     -13.563  29.670  35.484  0.00  0.00    +0.000 OA
ATOM     49  O5' C   B  13     -15.140  27.727  35.552  0.00  0.00    +0.000 OA
ATOM     50  C5' C   B  13     -15.887  28.112  34.404  0.00  0.00    +0.000 C 
ATOM     51  C4' C   B  13     -17.203  27.373  34.332  0.00  0.00    +0.000 C 
ATOM     52  O4' C   B  13     -16.969  25.939  34.252  0.00  0.00    +0.000 OA
ATOM     53  C3' C   B  13     -18.121  27.514  35.531  0.00  0.00    +0.000 C 
ATOM     54  O3' C   B  13     -18.822  28.750  35.558  0.00  0.00    +0.000 OA
ATOM     55  C2' C   B  13     -19.029  26.303  35.366  0.00  0.00    +0.000 C 
ATOM     56  C1' C   B  13     -18.035  25.250  34.883  0.00  0.00    +0.000 C 
ATOM     57  P   A   B  14     -19.176  29.422  36.946  0.00  0.00    +0.000 P 
ATOM     58  OP1 A   B  14     -19.901  30.676  36.655  0.00  0.00    +0.000 OA
ATOM     59  O5' A   B  14     -20.185  28.397  37.642  0.00  0.00    +0.000 OA
ATOM     60  C5' A   B  14     -21.489  28.197  37.127  0.00  0.00    +0.000 C 
ATOM     61  C4' A   B  14     -22.176  27.038  37.815  0.00  0.00    +0.000 C 
ATOM     62  O4' A   B  14     -21.368  25.838  37.682  0.00  0.00    +0.000 OA
ATOM     63  C3' A   B  14     -22.378  27.174  39.314  0.00  0.00    +0.000 C 
ATOM     64  O3' A   B  14     -23.499  27.975  39.649  0.00  0.00    +0.000 OA
ATOM     65  C2' A   B  14     -22.525  25.719  39.749  0.00  0.00    +0.000 C 
ATOM     66  C1' A   B  14     -21.505  25.034  38.838  0.00  0.00    +0.000 C 
ATOM     67  P   U   B  15     -23.471  29.041  40.844  0.00  0.00    +0.000 P 
ATOM     68  OP2 U   B  15     -22.379  29.996  40.527  0.00  0.00    +0.000 OA
ATOM     69  O5' U   B  15     -23.045  28.216  42.151  0.00  0.00    +0.000 OA
ATOM     70  C5' U   B  15     -21.726  28.245  42.666  0.00  0.00    +0.000 C 
ATOM     71  C4' U   B  15     -21.688  28.045  44.169  0.00  0.00    +0.000 C 
ATOM     72  O4' U   B  15     -22.306  29.189  44.816  0.00  0.00    +0.000 OA
ATOM     73  C3' U   B  15     -22.429  26.808  44.680  0.00  0.00    +0.000 C 
ATOM     74  O3' U   B  15     -21.717  26.249  45.784  0.00  0.00    +0.000 OA
ATOM     75  C2' U   B  15     -23.747  27.382  45.179  0.00  0.00    +0.000 C 
ATOM     76  C1' U   B  15     -23.301  28.740  45.721  0.00  0.00    +0.000 C 
ATOM     77  P   C   B  16     -21.029  24.783  45.637  0.00  0.00    +0.000 P 
ATOM     78  OP2 C   B  16     -20.744  24.567  44.195  0.00  0.00    +0.000 OA
ATOM     79  O5' C   B  16     -22.196  23.790  46.071  0.00  0.00    +0.000 OA
ATOM     80  C5' C   B  16     -22.473  23.550  47.446  0.00  0.00    +0.000 C 
ATOM     81  C4' C   B  16     -23.750  22.762  47.609  0.00  0.00    +0.000 C 
ATOM     82  O4' C   B  16     -24.881  23.552  47.159  0.00  0.00    +0.000 OA
ATOM     83  C3' C   B  16     -23.842  21.485  46.793  0.00  0.00    +0.000 C 
ATOM     84  O3' C   B  16     -23.168  20.397  47.419  0.00  0.00    +0.000 OA
ATOM     85  C2' C   B  16     -25.348  21.274  46.691  0.00  0.00    +0.000 C 
ATOM     86  C1' C   B  16     -25.852  22.713  46.563  0.00  0.00    +0.000 C 
ATOM     87  P   C   B  17     -22.425  19.256  46.524  0.00  0.00    +0.000 P 
ATOM     88  OP2 C   B  17     -21.608  19.945  45.494  0.00  0.00    +0.000 OA
ATOM     89  O5' C   B  17     -23.629  18.514  45.788  0.00  0.00    +0.000 OA
ATOM     90  C5' C   B  17     -24.554  17.722  46.517  0.00  0.00    +0.000 C 
ATOM     91  C4' C   B  17     -25.618  17.162  45.609  0.00  0.00    +0.000 C 
ATOM     92  O4' C   B  17     -26.421  18.243  45.065  0.00  0.00    +0.000 OA
ATOM     93  C3' C   B  17     -25.115  16.428  44.380  0.00  0.00    +0.000 C 
ATOM     94  O3' C   B  17     -24.726  15.090  44.668  0.00  0.00    +0.000 OA
ATOM     95  C2' C   B  17     -26.315  16.524  43.444  0.00  0.00    +0.000 C 
ATOM     96  C1' C   B  17     -26.826  17.929  43.749  0.00  0.00    +0.000 C 
ATOM     97  P   G   B  18     -23.633  14.339  43.743  0.00  0.00    +0.000 P 
ATOM     98  OP2 G   B  18     -22.463  15.243  43.587  0.00  0.00    +0.000 OA
ATOM     99  O5' G   B  18     -24.377  14.232  42.337  0.00  0.00    +0.000 OA
ATOM    100  C5' G   B  18     -23.646  14.286  41.123  0.00  0.00    +0.000 C 
ATOM    101  C4' G   B  18     -24.193  15.360  40.213  0.00  0.00    +0.000 C 
ATOM    102  O4' G   B  18     -24.005  16.659  40.830  0.00  0.00    +0.000 OA
ATOM    103  C3' G   B  18     -23.498  15.485  38.864  0.00  0.00    +0.000 C 
ATOM    104  O3' G   B  18     -23.994  14.541  37.927  0.00  0.00    +0.000 OA
ATOM    105  C2' G   B  18     -23.785  16.934  38.489  0.00  0.00    +0.000 C 
ATOM    106  C1' G   B  18     -23.668  17.624  39.852  0.00  0.00    +0.000 C 
ATOM    107  P   A   B  19     -23.004  13.816  36.889  0.00  0.00    +0.000 P 
ATOM    108  OP1 A   B  19     -23.747  12.722  36.214  0.00  0.00    +0.000 OA
ATOM    109  O5' A   B  19     -22.724  14.961  35.815  0.00  0.00    +0.000 OA
ATOM    110  C5' A   B  19     -23.781  15.510  35.036  0.00  0.00    +0.000 C 
ATOM    111  C4' A   B  19     -23.289  16.658  34.186  0.00  0.00    +0.000 C 
ATOM    112  O4' A   B  19     -22.863  17.756  35.038  0.00  0.00    +0.000 OA
ATOM    113  C3' A   B  19     -22.070  16.365  33.333  0.00  0.00    +0.000 C 
ATOM    114  O3' A   B  19     -22.400  15.673  32.132  0.00  0.00    +0.000 OA
ATOM    115  C2' A   B  19     -21.500  17.760  33.101  0.00  0.00    +0.000 C 
ATOM    116  C1' A   B  19     -21.745  18.411  34.461  0.00  0.00    +0.000 C 
ATOM    117  P   A   B  20     -21.399  14.560  31.535  0.00  0.00    +0.000 P 
ATOM    118  OP1 A   B  20     -22.116  13.815  30.470  0.00  0.00    +0.000 OA
ATOM    119  O5' A   B  20     -20.273  15.457  30.845  0.00  0.00    +0.000 OA
ATOM    120  C5' A   B  20     -20.597  16.324  29.762  0.00  0.00    +0.000 C 
ATOM    121  C4' A   B  20     -19.484  17.312  29.500  0.00  0.00    +0.000 C 
ATOM    122  O4' A   B  20     -19.264  18.135  30.678  0.00  0.00    +0.000 OA
ATOM    123  C3' A   B  20     -18.116  16.714  29.222  0.00  0.00    +0.000 C 
ATOM    124  O3' A   B  20     -17.973  16.238  27.890  0.00  0.00    +0.000 OA
ATOM    125  C2' A   B  20     -17.197  17.880  29.556  0.00  0.00    +0.000 C 
ATOM    126  C1' A   B  20     -17.888  18.458  30.788  0.00  0.00    +0.000 C 
ATOM    127  P   A   B  21     -17.056  14.949  27.588  0.00  0.00    +0.000 P 
ATOM    128  OP1 A   B  21     -17.243  14.581  26.163  0.00  0.00    +0.000 OA
ATOM    129  O5' A   B  21     -15.578  15.527  27.764  0.00  0.00    +0.000 OA
ATOM    130  C5' A   B  21     -15.098  16.564  26.918  0.00  0.00    +0.000 C 
ATOM    131  C4' A   B  21     -13.832  17.177  27.468  0.00  0.00    +0.000 C 
ATOM    132  O4' A   B  21     -14.066  17.676  28.812  0.00  0.00    +0.000 OA
ATOM    133  C3' A   B  21     -12.654  16.233  27.637  0.00  0.00    +0.000 C 
ATOM    134  O3' A   B  21     -11.967  15.983  26.419  0.00  0.00    +0.000 OA
ATOM    135  C2' A   B  21     -11.807  16.977  28.663  0.00  0.00    +0.000 C 
ATOM    136  C1' A   B  21     -12.885  17.547  29.584  0.00  0.00    +0.000 C 
ATOM    137  P   C   B  22     -11.329  14.517  26.147  0.00  0.00    +0.000 P 
ATOM    138  OP1 C   B  22     -10.778  14.524  24.764  0.00  0.00    +0.000 OA
ATOM    139  O5' C   B  22     -10.111  14.463  27.169  0.00  0.00    +0.000 OA
ATOM    140  C5' C   B  22      -9.027  15.378  27.068  0.00  0.00    +0.000 C 
ATOM    141  C4' C   B  22      -8.112  15.269  28.262  0.00  0.00    +0.000 C 
ATOM    142  O4' C   B  22      -8.829  15.627  29.477  0.00  0.00    +0.000 OA
ATOM    143  C3' C   B  22      -7.581  13.881  28.555  0.00  0.00    +0.000 C 
ATOM    144  O3' C   B  22      -6.488  13.526  27.715  0.00  0.00    +0.000 OA
ATOM    145  C2' C   B  22      -7.206  13.993  30.028  0.00  0.00    +0.000 C 
ATOM    146  C1' C   B  22      -8.346  14.859  30.563  0.00  0.00    +0.000 C 
ATOM    147  P   U   B  23      -6.331  11.987  27.226  0.00  0.00    +0.000 P 
ATOM    148  OP1 U   B  23      -5.261  11.948  26.198  0.00  0.00    +0.000 OA
ATOM    149  O5' U   B  23      -5.798  11.252  28.535  0.00  0.00    +0.000 OA
ATOM    150  C5' U   B  23      -4.531  11.579  29.094  0.00  0.00    +0.000 C 
ATOM    151  C4' U   B  23      -4.312  10.865  30.403  0.00  0.00    +0.000 C 
ATOM    152  O4' U   B  23      -5.259  11.345  31.400  0.00  0.00    +0.000 OA
ATOM    153  C3' U   B  23      -4.540   9.369  30.385  0.00  0.00    +0.000 C 
ATOM    154  O3' U   B  23      -3.444   8.648  29.829  0.00  0.00    +0.000 OA
ATOM    155  C2' U   B  23      -4.783   9.066  31.857  0.00  0.00    +0.000 C 
ATOM    156  C1' U   B  23      -5.601  10.289  32.281  0.00  0.00    +0.000 C 
ATOM    157  P   U   B  24      -3.728   7.326  28.930  0.00  0.00    +0.000 P 
ATOM    158  OP2 U   B  24      -4.835   7.621  27.988  0.00  0.00    +0.000 OA
ATOM    159  O5' U   B  24      -4.257   6.258  29.990  0.00  0.00    +0.000 OA
ATOM    160  C5' U   B  24      -3.419   5.787  31.038  0.00  0.00    +0.000 C 
ATOM    161  C4' U   B  24      -4.167   4.868  31.971  0.00  0.00    +0.000 C 
ATOM    162  O4' U   B  24      -5.230   5.598  32.648  0.00  0.00    +0.000 OA
ATOM    163  C3' U   B  24      -4.886   3.705  31.321  0.00  0.00    +0.000 C 
ATOM    164  O3' U   B  24      -4.008   2.632  30.992  0.00  0.00    +0.000 OA
ATOM    165  C2' U   B  24      -5.920   3.340  32.378  0.00  0.00    +0.000 C 
ATOM    166  C1' U   B  24      -6.324   4.728  32.891  0.00  0.00    +0.000 C 
ATOM    167  P   U   B  25      -4.296   1.716  29.683  0.00  0.00    +0.000 P 
ATOM    168  OP2 U   B  25      -4.721   2.607  28.571  0.00  0.00    +0.000 OA
ATOM    169  O5' U   B  25      -5.554   0.835  30.115  0.00  0.00    +0.000 OA
ATOM    170  C5' U   B  25      -5.464  -0.101  31.182  0.00  0.00    +0.000 C 
ATOM    171  C4' U   B  25      -6.814  -0.693  31.507  0.00  0.00    +0.000 C 
ATOM    172  O4' U   B  25      -7.717   0.353  31.967  0.00  0.00    +0.000 OA
ATOM    173  C3' U   B  25      -7.553  -1.328  30.348  0.00  0.00    +0.000 C 
ATOM    174  O3' U   B  25      -7.082  -2.638  30.049  0.00  0.00    +0.000 OA
ATOM    175  C2' U   B  25      -8.994  -1.301  30.839  0.00  0.00    +0.000 C 
ATOM    176  C1' U   B  25      -9.040   0.054  31.556  0.00  0.00    +0.000 C 
ATOM    177  P   U   B  26      -7.126  -3.205  28.535  0.00  0.00    +0.000 P 
ATOM    178  OP2 U   B  26      -6.771  -2.096  27.615  0.00  0.00    +0.000 OA
ATOM    179  O5' U   B  26      -8.670  -3.549  28.320  0.00  0.00    +0.000 OA
ATOM    180  C5' U   B  26      -9.311  -4.554  29.093  0.00  0.00    +0.000 C 
ATOM    181  C4' U   B  26     -10.809  -4.521  28.907  0.00  0.00    +0.000 C 
ATOM    182  O4' U   B  26     -11.333  -3.231  29.335  0.00  0.00    +0.000 OA
ATOM    183  C3' U   B  26     -11.305  -4.659  27.483  0.00  0.00    +0.000 C 
ATOM    184  O3' U   B  26     -11.311  -6.009  27.030  0.00  0.00    +0.000 OA
ATOM    185  C2' U   B  26     -12.696  -4.047  27.573  0.00  0.00    +0.000 C 
ATOM    186  C1' U   B  26     -12.449  -2.881  28.537  0.00  0.00    +0.000 C 
ATOM    187  P   U   B  27     -11.096  -6.362  25.472  0.00  0.00    +0.000 P 
ATOM    188  OP2 U   B  27     -10.037  -5.467  24.938  0.00  0.00    +0.000 OA
ATOM    189  O5' U   B  27     -12.486  -5.929  24.814  0.00  0.00    +0.000 OA
ATOM    190  C5' U   B  27     -13.699  -6.586  25.164  0.00  0.00    +0.000 C 
ATOM    191  C4' U   B  27     -14.898  -5.856  24.605  0.00  0.00    +0.000 C 
ATOM    192  O4' U   B  27     -14.963  -4.509  25.154  0.00  0.00    +0.000 OA
ATOM    193  C3' U   B  27     -14.901  -5.638  23.106  0.00  0.00    +0.000 C 
ATOM    194  O3' U   B  27     -15.302  -6.794  22.381  0.00  0.00    +0.000 OA
ATOM    195  C2' U   B  27     -15.864  -4.467  22.960  0.00  0.00    +0.000 C 
ATOM    196  C1' U   B  27     -15.503  -3.624  24.189  0.00  0.00    +0.000 C 
ATOM    197  P   U   B  28     -14.710  -7.105  20.915  0.00  0.00    +0.000 P 
ATOM    198  OP1 U   B  28     -15.127  -8.470  20.506  0.00  0.00    +0.000 OA
ATOM    199  O5' U   B  28     -15.482  -6.046  19.999  0.00  0.00    +0.000 OA
ATOM    200  C5' U   B  28     -16.894  -6.106  19.844  0.00  0.00    +0.000 C 
ATOM    201  C4' U   B  28     -17.425  -4.862  19.170  0.00  0.00    +0.000 C 
ATOM    202  O4' U   B  28     -17.141  -3.690  19.985  0.00  0.00    +0.000 OA
ATOM    203  C3' U   B  28     -16.815  -4.522  17.825  0.00  0.00    +0.000 C 
ATOM    204  O3' U   B  28     -17.343  -5.302  16.763  0.00  0.00    +0.000 OA
ATOM    205  C2' U   B  28     -17.128  -3.035  17.705  0.00  0.00    +0.000 C 
ATOM    206  C1' U   B  28     -16.918  -2.567  19.148  0.00  0.00    +0.000 C 
ATOM    207  P   A   B  29     -16.437  -5.676  15.489  0.00  0.00    +0.000 P 
ATOM    208  OP1 A   B  29     -17.155  -6.684  14.667  0.00  0.00    +0.000 OA
ATOM    209  O5' A   B  29     -16.411  -4.296  14.680  0.00  0.00    +0.000 OA
ATOM    210  C5' A   B  29     -17.608  -3.750  14.137  0.00  0.00    +0.000 C 
ATOM    211  C4' A   B  29     -17.383  -2.345  13.627  0.00  0.00    +0.000 C 
ATOM    212  O4' A   B  29     -17.001  -1.473  14.725  0.00  0.00    +0.000 OA
ATOM    213  C3' A   B  29     -16.256  -2.176  12.623  0.00  0.00    +0.000 C 
ATOM    214  O3' A   B  29     -16.626  -2.569  11.307  0.00  0.00    +0.000 OA
ATOM    215  C2' A   B  29     -15.947  -0.691  12.750  0.00  0.00    +0.000 C 
ATOM    216  C1' A   B  29     -16.109  -0.475  14.257  0.00  0.00    +0.000 C 
ATOM    217  P   A   B  30     -15.543  -3.187  10.307  0.00  0.00    +0.000 P 
ATOM    218  OP1 A   B  30     -16.254  -3.731   9.120  0.00  0.00    +0.000 OA
ATOM    219  O5' A   B  30     -14.730  -1.888   9.848  0.00  0.00    +0.000 OA
ATOM    220  C5' A   B  30     -15.377  -0.846   9.123  0.00  0.00    +0.000 C 
ATOM    221  C4' A   B  30     -14.514   0.394   9.069  0.00  0.00    +0.000 C 
ATOM    222  O4' A   B  30     -14.248   0.875  10.414  0.00  0.00    +0.000 OA
ATOM    223  C3' A   B  30     -13.130   0.214   8.469  0.00  0.00    +0.000 C 
ATOM    224  O3' A   B  30     -13.141   0.193   7.049  0.00  0.00    +0.000 OA
ATOM    225  C2' A   B  30     -12.383   1.405   9.055  0.00  0.00    +0.000 C 
ATOM    226  C1' A   B  30     -12.958   1.456  10.471  0.00  0.00    +0.000 C 
ATOM    227  P   A   B  31     -12.060  -0.658   6.250  0.00  0.00    +0.000 P 
ATOM    228  OP1 A   B  31     -12.463  -0.688   4.822  0.00  0.00    +0.000 OA
ATOM    229  O5' A   B  31     -10.757   0.261   6.382  0.00  0.00    +0.000 OA
ATOM    230  C5' A   B  31     -10.733   1.574   5.834  0.00  0.00    +0.000 C 
ATOM    231  C4' A   B  31      -9.517   2.338   6.305  0.00  0.00    +0.000 C 
ATOM    232  O4' A   B  31      -9.543   2.476   7.750  0.00  0.00    +0.000 OA
ATOM    233  C3' A   B  31      -8.175   1.683   6.027  0.00  0.00    +0.000 C 
ATOM    234  O3' A   B  31      -7.738   1.868   4.687  0.00  0.00    +0.000 OA
ATOM    235  C2' A   B  31      -7.280   2.357   7.058  0.00  0.00    +0.000 C 
ATOM    236  C1' A   B  31      -8.221   2.455   8.259  0.00  0.00    +0.000 C 
ATOM    237  P   A   B  32      -6.846   0.750   3.966  0.00  0.00    +0.000 P 
ATOM    238  OP1 A   B  32      -6.773   1.084   2.522  0.00  0.00    +0.000 OA
ATOM    239  O5' A   B  32      -5.409   1.016   4.611  0.00  0.00    +0.000 OA
ATOM    240  C5' A   B  32      -4.743   2.256   4.427  0.00  0.00    +0.000 C 
ATOM    241  C4' A   B  32      -3.519   2.354   5.305  0.00  0.00    +0.000 C 
ATOM    242  O4' A   B  32      -3.909   2.336   6.704  0.00  0.00    +0.000 OA
ATOM    243  C3' A   B  32      -2.531   1.206   5.184  0.00  0.00    +0.000 C 
ATOM    244  O3' A   B  32      -1.682   1.324   4.050  0.00  0.00    +0.000 OA
ATOM    245  C2' A   B  32      -1.786   1.296   6.513  0.00  0.00    +0.000 C 
ATOM    246  C1' A   B  32      -2.918   1.668   7.468  0.00  0.00    +0.000 C 
ATOM    247  P   U   B  33      -1.242   0.019   3.236  0.00  0.00    +0.000 P 
ATOM    248  OP1 U   B  33      -0.589   0.467   1.982  0.00  0.00    +0.000 OA
ATOM    249  O5' U   B  33      -0.122  -0.598   4.190  0.00  0.00    +0.000 OA
ATOM    250  C5' U   B  33       1.062   0.126   4.497  0.00  0.00    +0.000 C 
ATOM    251  C4' U   B  33       1.829  -0.522   5.621  0.00  0.00    +0.000 C 
ATOM    252  O4' U   B  33       1.048  -0.484   6.844  0.00  0.00    +0.000 OA
ATOM    253  C3' U   B  33       2.149  -1.992   5.439  0.00  0.00    +0.000 C 
ATOM    254  O3' U   B  33       3.252  -2.223   4.574  0.00  0.00    +0.000 OA
ATOM    255  C2' U   B  33       2.393  -2.434   6.881  0.00  0.00    +0.000 C 
ATOM    256  C1' U   B  33       1.329  -1.633   7.622  0.00  0.00    +0.000 C 
ATOM    257  P   A   B  34       3.247  -3.505   3.589  0.00  0.00    +0.000 P 
ATOM    258  OP1 A   B  34       4.377  -3.344   2.642  0.00  0.00    +0.000 OA
ATOM    259  O5' A   B  34       3.590  -4.707   4.582  0.00  0.00    +0.000 OA
ATOM    260  C5' A   B  34       4.855  -4.775   5.227  0.00  0.00    +0.000 C 
ATOM    261  C4' A   B  34       4.854  -5.794   6.337  0.00  0.00    +0.000 C 
ATOM    262  O4' A   B  34       3.890  -5.419   7.356  0.00  0.00    +0.000 OA
ATOM    263  C3' A   B  34       4.445  -7.203   5.954  0.00  0.00    +0.000 C 
ATOM    264  O3' A   B  34       5.472  -7.936   5.303  0.00  0.00    +0.000 OA
ATOM    265  C2' A   B  34       4.050  -7.782   7.306  0.00  0.00    +0.000 C 
ATOM    266  C1' A   B  34       3.357  -6.588   7.953  0.00  0.00    +0.000 C 
ATOM    267  P   A   B  35       5.092  -9.005   4.148  0.00  0.00    +0.000 P 
ATOM    268  OP2 A   B  35       4.028  -8.439   3.284  0.00  0.00    +0.000 OA
ATOM    269  O5' A   B  35       4.465 -10.225   4.968  0.00  0.00    +0.000 OA
ATOM    270  C5' A   B  35       5.295 -11.081   5.741  0.00  0.00    +0.000 C 
ATOM    271  C4' A   B  35       4.507 -11.824   6.791  0.00  0.00    +0.000 C 
ATOM    272  O4' A   B  35       3.617 -10.913   7.487  0.00  0.00    +0.000 OA
ATOM    273  C3' A   B  35       3.581 -12.919   6.301  0.00  0.00    +0.000 C 
ATOM    274  O3' A   B  35       4.249 -14.127   5.969  0.00  0.00    +0.000 OA
ATOM    275  C2' A   B  35       2.637 -13.068   7.487  0.00  0.00    +0.000 C 
ATOM    276  C1' A   B  35       2.454 -11.612   7.905  0.00  0.00    +0.000 C 
ATOM    277  P   U   B  36       3.694 -15.059   4.774  0.00  0.00    +0.000 P 
ATOM    278  OP2 U   B  36       3.504 -14.210   3.569  0.00  0.00    +0.000 OA
ATOM    279  O5' U   B  36       2.253 -15.521   5.279  0.00  0.00    +0.000 OA
ATOM    280  C5' U   B  36       2.115 -16.374   6.409  0.00  0.00    +0.000 C 
ATOM    281  C4' U   B  36       0.660 -16.580   6.762  0.00  0.00    +0.000 C 
ATOM    282  O4' U   B  36       0.027 -15.308   7.063  0.00  0.00    +0.000 OA
ATOM    283  C3' U   B  36      -0.208 -17.164   5.672  0.00  0.00    +0.000 C 
ATOM    284  O3' U   B  36      -0.056 -18.570   5.544  0.00  0.00    +0.000 OA
ATOM    285  C2' U   B  36      -1.606 -16.744   6.120  0.00  0.00    +0.000 C 
ATOM    286  C1' U   B  36      -1.337 -15.345   6.675  0.00  0.00    +0.000 C 
ATOM    287  P   A   B  37      -0.303 -19.280   4.121  0.00  0.00    +0.000 P 
ATOM    288  OP2 A   B  37       0.207 -18.380   3.052  0.00  0.00    +0.000 OA
ATOM    289  O5' A   B  37      -1.890 -19.323   4.012  0.00  0.00    +0.000 OA
ATOM    290  C5' A   B  37      -2.649 -20.111   4.923  0.00  0.00    +0.000 C 
ATOM    291  C4' A   B  37      -4.130 -19.918   4.699  0.00  0.00    +0.000 C 
ATOM    292  O4' A   B  37      -4.507 -18.549   4.999  0.00  0.00    +0.000 OA
ATOM    293  C3' A   B  37      -4.614 -20.122   3.276  0.00  0.00    +0.000 C 
ATOM    294  O3' A   B  37      -4.767 -21.496   2.946  0.00  0.00    +0.000 OA
ATOM    295  C2' A   B  37      -5.930 -19.350   3.275  0.00  0.00    +0.000 C 
ATOM    296  C1' A   B  37      -5.579 -18.154   4.161  0.00  0.00    +0.000 C 
ATOM    297  P   U   B  38      -4.481 -22.007   1.470  0.00  0.00    +0.000 P 
ATOM    298  OP2 U   B  38      -3.273 -21.307   0.955  0.00  0.00    +0.000 OA
ATOM    299  O5' U   B  38      -5.744 -21.474   0.655  0.00  0.00    +0.000 OA
ATOM    300  C5' U   B  38      -7.055 -21.912   0.990  0.00  0.00    +0.000 C 
ATOM    301  C4' U   B  38      -8.091 -21.167   0.180  0.00  0.00    +0.000 C 
ATOM    302  O4' U   B  38      -8.060 -19.753   0.513  0.00  0.00    +0.000 OA
ATOM    303  C3' U   B  38      -7.899 -21.192  -1.318  0.00  0.00    +0.000 C 
ATOM    304  O3' U   B  38      -8.374 -22.403  -1.894  0.00  0.00    +0.000 OA
ATOM    305  C2' U   B  38      -8.679 -19.956  -1.772  0.00  0.00    +0.000 C 
ATOM    306  C1' U   B  38      -8.415 -18.982  -0.621  0.00  0.00    +0.000 C 
ATOM    307  P   U   B  39      -7.374 -23.390  -2.599  0.00  0.00    +0.000 P 
ATOM    308  OP1 U   B  39      -8.048 -24.696  -2.745  0.00  0.00    +0.000 OA
ATOM    309  O5' U   B  39      -7.213 -22.738  -4.041  0.00  0.00    +0.000 OA
ATOM    310  C5' U   B  39      -6.382 -23.342  -5.029  0.00  0.00    +0.000 C 
ATOM    311  C4' U   B  39      -6.746 -22.803  -6.387  0.00  0.00    +0.000 C 
ATOM    312  O4' U   B  39      -8.036 -23.339  -6.791  0.00  0.00    +0.000 OA
ATOM    313  C3' U   B  39      -6.932 -21.305  -6.471  0.00  0.00    +0.000 C 
ATOM    314  O3' U   B  39      -5.700 -20.610  -6.588  0.00  0.00    +0.000 OA
ATOM    315  C2' U   B  39      -7.834 -21.154  -7.681  0.00  0.00    +0.000 C 
ATOM    316  C1' U   B  39      -8.746 -22.371  -7.536  0.00  0.00    +0.000 C 
ATOM    317  P   C   B  40      -5.592 -19.141  -6.111  0.00  0.00    +0.000 P 
ATOM    318  OP2 C   B  40      -6.860 -18.761  -5.444  0.00  0.00    +0.000 OA
ATOM    319  O5' C   B  40      -5.492 -18.325  -7.476  0.00  0.00    +0.000 OA
ATOM    320  C5' C   B  40      -4.382 -18.494  -8.348  0.00  0.00    +0.000 C 
ATOM    321  C4' C   B  40      -4.508 -17.604  -9.560  0.00  0.00    +0.000 C 
ATOM    322  O4' C   B  40      -5.614 -18.048 -10.384  0.00  0.00    +0.000 OA
ATOM    323  C3' C   B  40      -4.824 -16.155  -9.274  0.00  0.00    +0.000 C 
ATOM    324  O3' C   B  40      -3.662 -15.411  -8.922  0.00  0.00    +0.000 OA
ATOM    325  C2' C   B  40      -5.459 -15.693 -10.577  0.00  0.00    +0.000 C 
ATOM    326  C1' C   B  40      -6.245 -16.933 -10.986  0.00  0.00    +0.000 C 
ATOM    327  P   U   B  41      -3.713 -14.438  -7.702  0.00  0.00    +0.000 P 
ATOM    328  OP1 U   B  41      -2.330 -13.964  -7.446  0.00  0.00    +0.000 OA
ATOM    329  O5' U   B  41      -4.568 -13.214  -8.267  0.00  0.00    +0.000 OA
ATOM    330  C5' U   B  41      -4.042 -12.352  -9.267  0.00  0.00    +0.000 C 
ATOM    331  C4' U   B  41      -5.059 -11.317  -9.669  0.00  0.00    +0.000 C 
ATOM    332  O4' U   B  41      -6.137 -11.942 -10.417  0.00  0.00    +0.000 OA
ATOM    333  C3' U   B  41      -5.767 -10.614  -8.537  0.00  0.00    +0.000 C 
ATOM    334  O3' U   B  41      -4.986  -9.580  -7.958  0.00  0.00    +0.000 OA
ATOM    335  C2' U   B  41      -7.038 -10.111  -9.214  0.00  0.00    +0.000 C 
ATOM    336  C1' U   B  41      -7.354 -11.271 -10.153  0.00  0.00    +0.000 C 
ATOM    337  P   U   B  42      -5.045  -9.330  -6.389  0.00  0.00    +0.000 P 
ATOM    338  OP1 U   B  42      -4.002  -8.336  -6.046  0.00  0.00    +0.000 OA
ATOM    339  O5' U   B  42      -6.475  -8.646  -6.205  0.00  0.00    +0.000 OA
ATOM    340  C5' U   B  42      -6.752  -7.371  -6.771  0.00  0.00    +0.000 C 
ATOM    341  C4' U   B  42      -8.230  -7.081  -6.750  0.00  0.00    +0.000 C 
ATOM    342  O4' U   B  42      -8.942  -8.066  -7.547  0.00  0.00    +0.000 OA
ATOM    343  C3' U   B  42      -8.906  -7.153  -5.403  0.00  0.00    +0.000 C 
ATOM    344  O3' U   B  42      -8.697  -5.995  -4.611  0.00  0.00    +0.000 OA
ATOM    345  C2' U   B  42     -10.369  -7.357  -5.792  0.00  0.00    +0.000 C 
ATOM    346  C1' U   B  42     -10.229  -8.279  -7.000  0.00  0.00    +0.000 C 
ATOM    347  P   A   B  43      -8.392  -6.141  -3.054  0.00  0.00    +0.000 P 
ATOM    348  OP2 A   B  43      -7.323  -7.147  -2.859  0.00  0.00    +0.000 OA
ATOM    349  O5' A   B  43      -9.748  -6.744  -2.469  0.00  0.00    +0.000 OA
ATOM    350  C5' A   B  43     -10.944  -5.969  -2.457  0.00  0.00    +0.000 C 
ATOM    351  C4' A   B  43     -12.143  -6.828  -2.140  0.00  0.00    +0.000 C 
ATOM    352  O4' A   B  43     -12.279  -7.873  -3.139  0.00  0.00    +0.000 OA
ATOM    353  C3' A   B  43     -12.093  -7.585  -0.826  0.00  0.00    +0.000 C 
ATOM    354  O3' A   B  43     -12.419  -6.785   0.297  0.00  0.00    +0.000 OA
ATOM    355  C2' A   B  43     -13.090  -8.706  -1.073  0.00  0.00    +0.000 C 
ATOM    356  C1' A   B  43     -12.799  -9.042  -2.534  0.00  0.00    +0.000 C 
ATOM    357  P   C   B  44     -11.671  -7.011   1.679  0.00  0.00    +0.000 P 
ATOM    358  OP2 C   B  44     -10.213  -7.124   1.417  0.00  0.00    +0.000 OA
ATOM    359  O5' C   B  44     -12.192  -8.439   2.165  0.00  0.00    +0.000 OA
ATOM    360  C5' C   B  44     -13.562  -8.652   2.475  0.00  0.00    +0.000 C 
ATOM    361  C4' C   B  44     -13.876 -10.126   2.579  0.00  0.00    +0.000 C 
ATOM    362  O4' C   B  44     -13.502 -10.801   1.348  0.00  0.00    +0.000 OA
ATOM    363  C3' C   B  44     -13.132 -10.889   3.655  0.00  0.00    +0.000 C 
ATOM    364  O3' C   B  44     -13.711 -10.724   4.940  0.00  0.00    +0.000 OA
ATOM    365  C2' C   B  44     -13.221 -12.322   3.146  0.00  0.00    +0.000 C 
ATOM    366  C1' C   B  44     -13.066 -12.119   1.637  0.00  0.00    +0.000 C 
ATOM    367  P   U   B  45     -12.804 -10.647   6.226  0.00  0.00    +0.000 P 
ATOM    368  OP2 U   B  45     -11.718  -9.669   5.962  0.00  0.00    +0.000 OA
ATOM    369  O5' U   B  45     -12.144 -12.098   6.323  0.00  0.00    +0.000 OA
ATOM    370  C5' U   B  45     -12.950 -13.259   6.496  0.00  0.00    +0.000 C 
ATOM    371  C4' U   B  45     -12.100 -14.461   6.832  0.00  0.00    +0.000 C 
ATOM    372  O4' U   B  45     -11.183 -14.742   5.743  0.00  0.00    +0.000 OA
ATOM    373  C3' U   B  45     -11.199 -14.296   8.037  0.00  0.00    +0.000 C 
ATOM    374  O3' U   B  45     -11.897 -14.503   9.256  0.00  0.00    +0.000 OA
ATOM    375  C2' U   B  45     -10.114 -15.338   7.779  0.00  0.00    +0.000 C 
ATOM    376  C1' U   B  45      -9.961 -15.248   6.258  0.00  0.00    +0.000 C 
ATOM    377  P   U   B  46     -11.674 -13.544  10.482  0.00  0.00    +0.000 P 
ATOM    378  OP2 U   B  46     -11.550 -12.153   9.972  0.00  0.00    +0.000 OA
ATOM    379  O5' U   B  46     -10.253 -14.005  11.024  0.00  0.00    +0.000 OA
ATOM    380  C5' U   B  46     -10.043 -15.330  11.494  0.00  0.00    +0.000 C 
ATOM    381  C4' U   B  46      -8.573 -15.636  11.621  0.00  0.00    +0.000 C 
ATOM    382  O4' U   B  46      -7.948 -15.602  10.310  0.00  0.00    +0.000 OA
ATOM    383  C3' U   B  46      -7.762 -14.647  12.431  0.00  0.00    +0.000 C 
ATOM    384  O3' U   B  46      -7.894 -14.847  13.831  0.00  0.00    +0.000 OA
ATOM    385  C2' U   B  46      -6.354 -14.890  11.911  0.00  0.00    +0.000 C 
ATOM    386  C1' U   B  46      -6.620 -15.125  10.424  0.00  0.00    +0.000 C 
ATOM    387  P   U   B  47      -7.802 -13.633  14.815  0.00  0.00    +0.000 P 
ATOM    388  OP2 U   B  47      -8.480 -12.464  14.197  0.00  0.00    +0.000 OA
ATOM    389  O5' U   B  47      -6.235 -13.338  14.848  0.00  0.00    +0.000 OA
ATOM    390  C5' U   B  47      -5.322 -14.312  15.334  0.00  0.00    +0.000 C 
ATOM    391  C4' U   B  47      -3.891 -13.911  15.070  0.00  0.00    +0.000 C 
ATOM    392  O4' U   B  47      -3.651 -13.831  13.638  0.00  0.00    +0.000 OA
ATOM    393  C3' U   B  47      -3.480 -12.546  15.576  0.00  0.00    +0.000 C 
ATOM    394  O3' U   B  47      -3.211 -12.536  16.972  0.00  0.00    +0.000 OA
ATOM    395  C2' U   B  47      -2.255 -12.251  14.721  0.00  0.00    +0.000 C 
ATOM    396  C1' U   B  47      -2.678 -12.837  13.372  0.00  0.00    +0.000 C 
ATOM    397  P   A   B  48      -3.472 -11.231  17.811  0.00  0.00    +0.000 P 
ATOM    398  OP2 A   B  48      -4.691 -10.549  17.304  0.00  0.00    +0.000 OA
ATOM    399  O5' A   B  48      -2.208 -10.337  17.423  0.00  0.00    +0.000 OA
ATOM    400  C5' A   B  48      -0.891 -10.761  17.751  0.00  0.00    +0.000 C 
ATOM    401  C4' A   B  48       0.146  -9.889  17.082  0.00  0.00    +0.000 C 
ATOM    402  O4' A   B  48       0.049 -10.022  15.639  0.00  0.00    +0.000 OA
ATOM    403  C3' A   B  48       0.006  -8.397  17.316  0.00  0.00    +0.000 C 
ATOM    404  O3' A   B  48       0.519  -7.988  18.578  0.00  0.00    +0.000 OA
ATOM    405  C2' A   B  48       0.769  -7.819  16.133  0.00  0.00    +0.000 C 
ATOM    406  C1' A   B  48       0.383  -8.792  15.018  0.00  0.00    +0.000 C 
ATOM    407  P   U   B  49      -0.155  -6.777  19.337  0.00  0.00    +0.000 P 
ATOM    408  OP2 U   B  49      -1.624  -6.798  19.122  0.00  0.00    +0.000 OA
ATOM    409  O5' U   B  49       0.443  -5.518  18.556  0.00  0.00    +0.000 OA
ATOM    410  C5' U   B  49       1.842  -5.267  18.532  0.00  0.00    +0.000 C 
ATOM    411  C4' U   B  49       2.198  -4.229  17.497  0.00  0.00    +0.000 C 
ATOM    412  O4' U   B  49       1.838  -4.705  16.170  0.00  0.00    +0.000 OA
ATOM    413  C3' U   B  49       1.473  -2.903  17.609  0.00  0.00    +0.000 C 
ATOM    414  O3' U   B  49       2.016  -2.055  18.612  0.00  0.00    +0.000 OA
ATOM    415  C2' U   B  49       1.620  -2.345  16.200  0.00  0.00    +0.000 C 
ATOM    416  C1' U   B  49       1.446  -3.611  15.358  0.00  0.00    +0.000 C 
ATOM    417  P   U   B  50       1.033  -1.080  19.406  0.00  0.00    +0.000 P 
ATOM    418  OP2 U   B  50      -0.245  -1.771  19.707  0.00  0.00    +0.000 OA
ATOM    419  O5' U   B  50       0.739   0.059  18.329  0.00  0.00    +0.000 OA
ATOM    420  C5' U   B  50       1.788   0.871  17.819  0.00  0.00    +0.000 C 
ATOM    421  C4' U   B  50       1.335   1.671  16.621  0.00  0.00    +0.000 C 
ATOM    422  O4' U   B  50       0.918   0.778  15.552  0.00  0.00    +0.000 OA
ATOM    423  C3' U   B  50       0.130   2.563  16.833  0.00  0.00    +0.000 C 
ATOM    424  O3' U   B  50       0.447   3.776  17.502  0.00  0.00    +0.000 OA
ATOM    425  C2' U   B  50      -0.358   2.770  15.407  0.00  0.00    +0.000 C 
ATOM    426  C1' U   B  50      -0.125   1.384  14.805  0.00  0.00    +0.000 C 
ATOM    427  P   U   B  51      -0.669   4.460  18.423  0.00  0.00    +0.000 P 
ATOM    428  OP1 U   B  51      -0.001   5.566  19.153  0.00  0.00    +0.000 OA
ATOM    429  O5' U   B  51      -1.665   5.096  17.351  0.00  0.00    +0.000 OA
ATOM    430  C5' U   B  51      -1.218   6.087  16.435  0.00  0.00    +0.000 C 
ATOM    431  C4' U   B  51      -2.247   6.350  15.359  0.00  0.00    +0.000 C 
ATOM    432  O4' U   B  51      -2.495   5.139  14.598  0.00  0.00    +0.000 OA
ATOM    433  C3' U   B  51      -3.623   6.762  15.840  0.00  0.00    +0.000 C 
ATOM    434  O3' U   B  51      -3.689   8.130  16.214  0.00  0.00    +0.000 OA
ATOM    435  C2' U   B  51      -4.490   6.419  14.638  0.00  0.00    +0.000 C 
ATOM    436  C1' U   B  51      -3.844   5.118  14.160  0.00  0.00    +0.000 C 
ATOM    437  P   U   B  52      -4.719   8.569  17.359  0.00  0.00    +0.000 P 
ATOM    438  OP1 U   B  52      -4.401   9.977  17.698  0.00  0.00    +0.000 OA
ATOM    439  O5' U   B  52      -6.130   8.533  16.614  0.00  0.00    +0.000 OA
ATOM    440  C5' U   B  52      -6.384   9.366  15.488  0.00  0.00    +0.000 C 
ATOM    441  C4' U   B  52      -7.657   8.964  14.783  0.00  0.00    +0.000 C 
ATOM    442  O4' U   B  52      -7.543   7.604  14.285  0.00  0.00    +0.000 OA
ATOM    443  C3' U   B  52      -8.908   8.932  15.637  0.00  0.00    +0.000 C 
ATOM    444  O3' U   B  52      -9.459  10.222  15.855  0.00  0.00    +0.000 OA
ATOM    445  C2' U   B  52      -9.815   8.011  14.832  0.00  0.00    +0.000 C 
ATOM    446  C1' U   B  52      -8.812   6.972  14.322  0.00  0.00    +0.000 C 
ATOM    447  P   A   B  53     -10.253  10.505  17.210  0.00  0.00    +0.000 P 
ATOM    448  OP1 A   B  53     -10.508  11.967  17.259  0.00  0.00    +0.000 OA
ATOM    449  O5' A   B  53     -11.644   9.755  16.987  0.00  0.00    +0.000 OA
ATOM    450  C5' A   B  53     -12.523  10.154  15.937  0.00  0.00    +0.000 C 
ATOM    451  C4' A   B  53     -13.652   9.167  15.770  0.00  0.00    +0.000 C 
ATOM    452  O4' A   B  53     -13.124   7.871  15.375  0.00  0.00    +0.000 OA
ATOM    453  C3' A   B  53     -14.458   8.865  17.019  0.00  0.00    +0.000 C 
ATOM    454  O3' A   B  53     -15.418   9.872  17.313  0.00  0.00    +0.000 OA
ATOM    455  C2' A   B  53     -15.079   7.519  16.675  0.00  0.00    +0.000 C 
ATOM    456  C1' A   B  53     -13.929   6.843  15.923  0.00  0.00    +0.000 C 
ATOM    457  P   A   B  54     -15.829  10.149  18.820  0.00  0.00    +0.000 P 
ATOM    458  OP1 A   B  54     -16.614  11.410  18.833  0.00  0.00    +0.000 OA
ATOM    459  O5' A   B  54     -16.811   8.940  19.168  0.00  0.00    +0.000 OA
ATOM    460  C5' A   B  54     -18.037   8.773  18.462  0.00  0.00    +0.000 C 
ATOM    461  C4' A   B  54     -18.644   7.419  18.735  0.00  0.00    +0.000 C 
ATOM    462  O4' A   B  54     -17.736   6.372  18.293  0.00  0.00    +0.000 OA
ATOM    463  C3' A   B  54     -18.895   7.087  20.194  0.00  0.00    +0.000 C 
ATOM    464  O3' A   B  54     -20.077   7.684  20.703  0.00  0.00    +0.000 OA
ATOM    465  C2' A   B  54     -18.950   5.568  20.163  0.00  0.00    +0.000 C 
ATOM    466  C1' A   B  54     -17.846   5.251  19.150  0.00  0.00    +0.000 C 
ATOM    467  P   A   B  55     -20.172   8.067  22.238  0.00  0.00    +0.000 P 
ATOM    468  OP1 A   B  55     -21.403   8.879  22.417  0.00  0.00    +0.000 OA
ATOM    469  O5' A   B  55     -20.389   6.659  22.959  0.00  0.00    +0.000 OA
ATOM    470  C5' A   B  55     -21.550   5.881  22.692  0.00  0.00    +0.000 C 
ATOM    471  C4' A   B  55     -21.406   4.480  23.238  0.00  0.00    +0.000 C 
ATOM    472  O4' A   B  55     -20.269   3.822  22.617  0.00  0.00    +0.000 OA
ATOM    473  C3' A   B  55     -21.117   4.372  24.723  0.00  0.00    +0.000 C 
ATOM    474  O3' A   B  55     -22.274   4.537  25.528  0.00  0.00    +0.000 OA
ATOM    475  C2' A   B  55     -20.506   2.983  24.821  0.00  0.00    +0.000 C 
ATOM    476  C1' A   B  55     -19.661   2.942  23.545  0.00  0.00    +0.000 C 
ATOM    477  P   A   B  56     -22.162   5.173  26.968  0.00  0.00    +0.000 P 
ATOM    478  OP2 A   B  56     -21.175   6.287  26.924  0.00  0.00    +0.000 OA
ATOM    479  O5' A   B  56     -21.534   3.990  27.831  0.00  0.00    +0.000 OA
ATOM    480  C5' A   B  56     -22.243   2.768  28.013  0.00  0.00    +0.000 C 
ATOM    481  C4' A   B  56     -21.351   1.699  28.597  0.00  0.00    +0.000 C 
ATOM    482  O4' A   B  56     -20.232   1.447  27.705  0.00  0.00    +0.000 OA
ATOM    483  C3' A   B  56     -20.686   2.035  29.917  0.00  0.00    +0.000 C 
ATOM    484  O3' A   B  56     -21.553   1.885  31.029  0.00  0.00    +0.000 OA
ATOM    485  C2' A   B  56     -19.515   1.066  29.931  0.00  0.00    +0.000 C 
ATOM    486  C1' A   B  56     -19.086   1.106  28.462  0.00  0.00    +0.000 C 
ATOM    487  P   A   B  57     -21.362   2.760  32.315  0.00  0.00    +0.000 P 
ATOM    488  OP2 A   B  57     -21.000   4.148  31.907  0.00  0.00    +0.000 OA
ATOM    489  O5' A   B  57     -20.083   2.095  32.986  0.00  0.00    +0.000 OA
ATOM    490  C5' A   B  57     -20.113   0.742  33.415  0.00  0.00    +0.000 C 
ATOM    491  C4' A   B  57     -18.765   0.301  33.923  0.00  0.00    +0.000 C 
ATOM    492  O4' A   B  57     -17.803   0.291  32.833  0.00  0.00    +0.000 OA
ATOM    493  C3' A   B  57     -18.121   1.203  34.956  0.00  0.00    +0.000 C 
ATOM    494  O3' A   B  57     -18.664   1.021  36.254  0.00  0.00    +0.000 OA
ATOM    495  C2' A   B  57     -16.656   0.811  34.842  0.00  0.00    +0.000 C 
ATOM    496  C1' A   B  57     -16.520   0.631  33.329  0.00  0.00    +0.000 C 
ATOM    497  P   C   B  58     -18.778   2.245  37.238  0.00  0.00    +0.000 P 
ATOM    498  OP2 C   B  58     -18.943   3.495  36.449  0.00  0.00    +0.000 OA
ATOM    499  O5' C   B  58     -17.328   2.264  37.889  0.00  0.00    +0.000 OA
ATOM    500  C5' C   B  58     -16.860   1.157  38.641  0.00  0.00    +0.000 C 
ATOM    501  C4' C   B  58     -15.364   1.201  38.807  0.00  0.00    +0.000 C 
ATOM    502  O4' C   B  58     -14.714   1.140  37.511  0.00  0.00    +0.000 OA
ATOM    503  C3' C   B  58     -14.795   2.462  39.422  0.00  0.00    +0.000 C 
ATOM    504  O3' C   B  58     -14.965   2.530  40.828  0.00  0.00    +0.000 OA
ATOM    505  C2' C   B  58     -13.338   2.371  38.989  0.00  0.00    +0.000 C 
ATOM    506  C1' C   B  58     -13.494   1.860  37.556  0.00  0.00    +0.000 C 
ATOM    507  P   A   B  59     -15.140   3.937  41.518  0.00  0.00    +0.000 P 
ATOM    508  OP2 A   B  59     -16.021   4.795  40.682  0.00  0.00    +0.000 OA
ATOM    509  O5' A   B  59     -13.662   4.521  41.427  0.00  0.00    +0.000 OA
ATOM    510  C5' A   B  59     -12.585   3.864  42.067  0.00  0.00    +0.000 C 
ATOM    511  C4' A   B  59     -11.256   4.405  41.605  0.00  0.00    +0.000 C 
ATOM    512  O4' A   B  59     -11.111   4.205  40.173  0.00  0.00    +0.000 OA
ATOM    513  C3' A   B  59     -11.043   5.896  41.779  0.00  0.00    +0.000 C 
ATOM    514  O3' A   B  59     -10.711   6.248  43.111  0.00  0.00    +0.000 OA
ATOM    515  C2' A   B  59      -9.927   6.164  40.777  0.00  0.00    +0.000 C 
ATOM    516  C1' A   B  59     -10.334   5.251  39.621  0.00  0.00    +0.000 C 
ATOM    517  P   G   B  60     -11.199   7.629  43.699  0.00  0.00    +0.000 P 
ATOM    518  OP2 G   B  60     -12.587   7.912  43.245  0.00  0.00    +0.000 OA
ATOM    519  O5' G   B  60     -10.219   8.660  42.974  0.00  0.00    +0.000 OA
ATOM    520  C5' G   B  60      -8.820   8.589  43.188  0.00  0.00    +0.000 C 
ATOM    521  C4' G   B  60      -8.072   9.523  42.262  0.00  0.00    +0.000 C 
ATOM    522  O4' G   B  60      -8.273   9.114  40.886  0.00  0.00    +0.000 OA
ATOM    523  C3' G   B  60      -8.518  10.971  42.271  0.00  0.00    +0.000 C 
ATOM    524  O3' G   B  60      -7.987  11.693  43.370  0.00  0.00    +0.000 OA
ATOM    525  C2' G   B  60      -7.993  11.469  40.928  0.00  0.00    +0.000 C 
ATOM    526  C1' G   B  60      -8.196  10.242  40.041  0.00  0.00    +0.000 C 
ATOM    527  P   A   B  61      -8.895  12.670  44.202  0.00  0.00    +0.000 P 
ATOM    528  OP1 A   B  61     -10.122  12.965  43.425  0.00  0.00    +0.000 OA
ATOM    529  O5' A   B  61      -9.287  11.836  45.500  0.00  0.00    +0.000 OA
ATOM    530  C5' A   B  61     -10.632  11.480  45.753  0.00  0.00    +0.000 C 
ATOM    531  C4' A   B  61     -10.709  10.407  46.803  0.00  0.00    +0.000 C 
ATOM    532  O4' A   B  61     -10.065   9.199  46.313  0.00  0.00    +0.000 OA
ATOM    533  C3' A   B  61      -9.985  10.701  48.101  0.00  0.00    +0.000 C 
ATOM    534  O3' A   B  61     -10.728  11.544  48.975  0.00  0.00    +0.000 OA
ATOM    535  C2' A   B  61      -9.763   9.300  48.664  0.00  0.00    +0.000 C 
ATOM    536  C1' A   B  61      -9.441   8.522  47.389  0.00  0.00    +0.000 C 
ATOM    537  P   C   B  62      -9.997  12.435  50.017  0.00  0.00    +0.000 P 
ATOM    538  OP2 C   B  62      -8.780  12.997  49.373  0.00  0.00    +0.000 OA
ATOM    539  O5' C   B  62      -9.531  11.419  51.147  0.00  0.00    +0.000 OA
ATOM    540  C5' C   B  62     -10.486  10.667  51.889  0.00  0.00    +0.000 C 
ATOM    541  C4' C   B  62      -9.813   9.629  52.747  0.00  0.00    +0.000 C 
ATOM    542  O4' C   B  62      -9.110   8.669  51.915  0.00  0.00    +0.000 OA
ATOM    543  C3' C   B  62      -8.741  10.144  53.676  0.00  0.00    +0.000 C 
ATOM    544  C2' C   B  62      -7.940   8.875  53.965  0.00  0.00    +0.000 C 
ATOM    545  C1' C   B  62      -7.960   8.199  52.594  0.00  0.00    +0.000 C 
ATOM    546  N1  C   B  62      -6.759   8.523  51.792  0.00  0.00    +0.000 N 
ATOM    547  C2  C   B  62      -5.580   7.803  52.034  0.00  0.00    +0.000 A 
ATOM    548  O2  C   B  62      -5.582   6.922  52.906  0.00  0.00    +0.000 OA
ATOM    549  N3  C   B  62      -4.468   8.089  51.309  0.00  0.00    +0.000 NA
ATOM    550  C4  C   B  62      -4.500   9.043  50.376  0.00  0.00    +0.000 A 
ATOM    551  N4  C   B  62      -3.382   9.287  49.690  0.00  0.00    +0.000 N 
ATOM    552  C5  C   B  62      -5.681   9.787  50.114  0.00  0.00    +0.000 A 
ATOM    553  C6  C   B  62      -6.778   9.500  50.834  0.00  0.00    +0.000 A 
ATOM    554  H   A   B   9      -4.391  11.140  45.030  0.00  0.00    +0.000 HD
ATOM    555  H   C   B  62      -3.491   8.698  48.908  0.00  0.00    +0.000 HD
ENDROOT
BRANCH 526 556
ATOM    556  N9  G   B  60      -9.426  10.334  39.240  0.00  0.00    +0.000 N 
ATOM    557  C8  G   B  60     -10.686   9.905  39.567  0.00  0.00    +0.000 A 
ATOM    558  N7  G   B  60     -11.564  10.147  38.628  0.00  0.00    +0.000 NA
ATOM    559  C5  G   B  60     -10.835  10.773  37.624  0.00  0.00    +0.000 A 
ATOM    560  C6  G   B  60     -11.239  11.271  36.361  0.00  0.00    +0.000 A 
ATOM    561  O6  G   B  60     -12.374  11.261  35.854  0.00  0.00    +0.000 OA
ATOM    562  N1  G   B  60     -10.174  11.828  35.661  0.00  0.00    +0.000 NA
ATOM    563  C2  G   B  60      -8.882  11.896  36.117  0.00  0.00    +0.000 A 
ATOM    564  N2  G   B  60      -7.988  12.469  35.298  0.00  0.00    +0.000 N 
ATOM    565  N3  G   B  60      -8.489  11.440  37.289  0.00  0.00    +0.000 N 
ATOM    566  C4  G   B  60      -9.513  10.892  37.987  0.00  0.00    +0.000 A 
ATOM    567  H   G   B  60      -8.273  12.812  34.421  0.00  0.00    +0.000 HD
ATOM    568  H   G   B  60      -7.046  12.546  35.574  0.00  0.00    +0.000 HD
ATOM    569  H   G   B  60      -7.563  11.491  37.618  0.00  0.00    +0.000 HD
ENDBRANCH 526 556
BRANCH 106 570
ATOM    570  N9  G   B  18     -22.298  18.087  40.127  0.00  0.00    +0.000 N 
ATOM    571  C8  G   B  18     -21.464  17.637  41.124  0.00  0.00    +0.000 A 
ATOM    572  N7  G   B  18     -20.301  18.230  41.124  0.00  0.00    +0.000 NA
ATOM    573  C5  G   B  18     -20.370  19.130  40.068  0.00  0.00    +0.000 A 
ATOM    574  C6  G   B  18     -19.410  20.055  39.585  0.00  0.00    +0.000 A 
ATOM    575  O6  G   B  18     -18.264  20.271  40.008  0.00  0.00    +0.000 OA
ATOM    576  N1  G   B  18     -19.887  20.777  38.491  0.00  0.00    +0.000 NA
ATOM    577  C2  G   B  18     -21.134  20.624  37.938  0.00  0.00    +0.000 A 
ATOM    578  N2  G   B  18     -21.421  21.409  36.886  0.00  0.00    +0.000 N 
ATOM    579  N3  G   B  18     -22.042  19.766  38.379  0.00  0.00    +0.000 N 
ATOM    580  C4  G   B  18     -21.597  19.057  39.442  0.00  0.00    +0.000 A 
ATOM    581  H   G   B  18     -22.300  21.343  36.448  0.00  0.00    +0.000 HD
ATOM    582  H   G   B  18     -20.752  22.050  36.553  0.00  0.00    +0.000 HD
ATOM    583  H   G   B  18     -22.935  19.657  37.980  0.00  0.00    +0.000 HD
ENDBRANCH 106 570
BRANCH 266 584
ATOM    584  N9  A   B  34       1.903  -6.617   7.733  0.00  0.00    +0.000 N 
ATOM    585  C8  A   B  34       1.165  -5.940   6.796  0.00  0.00    +0.000 A 
ATOM    586  N7  A   B  34      -0.123  -6.189   6.858  0.00  0.00    +0.000 NA
ATOM    587  C5  A   B  34      -0.240  -7.094   7.902  0.00  0.00    +0.000 A 
ATOM    588  C6  A   B  34      -1.344  -7.751   8.474  0.00  0.00    +0.000 A 
ATOM    589  N6  A   B  34      -2.605  -7.587   8.051  0.00  0.00    +0.000 N 
ATOM    590  N1  A   B  34      -1.113  -8.590   9.503  0.00  0.00    +0.000 NA
ATOM    591  C2  A   B  34       0.146  -8.756   9.926  0.00  0.00    +0.000 A 
ATOM    592  N3  A   B  34       1.266  -8.194   9.472  0.00  0.00    +0.000 NA
ATOM    593  C4  A   B  34       1.000  -7.367   8.448  0.00  0.00    +0.000 A 
ATOM    594  H   A   B  34      -2.797  -6.979   7.301  0.00  0.00    +0.000 HD
ATOM    595  H   A   B  34      -3.339  -8.074   8.490  0.00  0.00    +0.000 HD
ENDBRANCH 266 584
BRANCH 456 596
ATOM    596  N9  A   B  53     -13.096   6.016  16.809  0.00  0.00    +0.000 N 
ATOM    597  C8  A   B  53     -11.882   6.324  17.368  0.00  0.00    +0.000 A 
ATOM    598  N7  A   B  53     -11.387   5.363  18.116  0.00  0.00    +0.000 NA
ATOM    599  C5  A   B  53     -12.340   4.359  18.046  0.00  0.00    +0.000 A 
ATOM    600  C6  A   B  53     -12.415   3.077  18.618  0.00  0.00    +0.000 A 
ATOM    601  N6  A   B  53     -11.465   2.567  19.415  0.00  0.00    +0.000 N 
ATOM    602  N1  A   B  53     -13.505   2.330  18.347  0.00  0.00    +0.000 NA
ATOM    603  C2  A   B  53     -14.454   2.840  17.553  0.00  0.00    +0.000 A 
ATOM    604  N3  A   B  53     -14.498   4.030  16.952  0.00  0.00    +0.000 NA
ATOM    605  C4  A   B  53     -13.399   4.749  17.244  0.00  0.00    +0.000 A 
ATOM    606  H   A   B  53     -10.662   3.096  19.625  0.00  0.00    +0.000 HD
ATOM    607  H   A   B  53     -11.571   1.663  19.790  0.00  0.00    +0.000 HD
ENDBRANCH 456 596
BRANCH 466 608
ATOM    608  N9  A   B  54     -16.548   5.026  19.801  0.00  0.00    +0.000 N 
ATOM    609  C8  A   B  54     -15.506   5.908  19.951  0.00  0.00    +0.000 A 
ATOM    610  N7  A   B  54     -14.475   5.400  20.585  0.00  0.00    +0.000 NA
ATOM    611  C5  A   B  54     -14.864   4.100  20.876  0.00  0.00    +0.000 A 
ATOM    612  C6  A   B  54     -14.220   3.040  21.536  0.00  0.00    +0.000 A 
ATOM    613  N6  A   B  54     -12.985   3.134  22.052  0.00  0.00    +0.000 N 
ATOM    614  N1  A   B  54     -14.889   1.875  21.659  0.00  0.00    +0.000 NA
ATOM    615  C2  A   B  54     -16.121   1.786  21.148  0.00  0.00    +0.000 A 
ATOM    616  N3  A   B  54     -16.835   2.709  20.503  0.00  0.00    +0.000 NA
ATOM    617  C4  A   B  54     -16.140   3.859  20.400  0.00  0.00    +0.000 A 
ATOM    618  H   A   B  54     -12.481   3.976  21.972  0.00  0.00    +0.000 HD
ATOM    619  H   A   B  54     -12.583   2.361  22.510  0.00  0.00    +0.000 HD
ENDBRANCH 466 608
BRANCH 476 620
ATOM    620  N9  A   B  55     -18.280   3.388  23.788  0.00  0.00    +0.000 N 
ATOM    621  C8  A   B  55     -17.720   4.617  23.529  0.00  0.00    +0.000 A 
ATOM    622  N7  A   B  55     -16.453   4.700  23.865  0.00  0.00    +0.000 NA
ATOM    623  C5  A   B  55     -16.160   3.446  24.383  0.00  0.00    +0.000 A 
ATOM    624  C6  A   B  55     -14.985   2.888  24.915  0.00  0.00    +0.000 A 
ATOM    625  N6  A   B  55     -13.829   3.565  25.019  0.00  0.00    +0.000 N 
ATOM    626  N1  A   B  55     -15.033   1.610  25.344  0.00  0.00    +0.000 NA
ATOM    627  C2  A   B  55     -16.186   0.938  25.243  0.00  0.00    +0.000 A 
ATOM    628  N3  A   B  55     -17.358   1.352  24.759  0.00  0.00    +0.000 NA
ATOM    629  C4  A   B  55     -17.276   2.630  24.342  0.00  0.00    +0.000 A 
ATOM    630  H   A   B  55     -13.776   4.499  24.711  0.00  0.00    +0.000 HD
ATOM    631  H   A   B  55     -13.035   3.127  25.403  0.00  0.00    +0.000 HD
ENDBRANCH 476 620
BRANCH 246 632
ATOM    632  N9  A   B  32      -3.528   0.484   8.097  0.00  0.00    +0.000 N 
ATOM    633  C8  A   B  32      -4.676  -0.179   7.731  0.00  0.00    +0.000 A 
ATOM    634  N7  A   B  32      -4.963  -1.204   8.499  0.00  0.00    +0.000 NA
ATOM    635  C5  A   B  32      -3.934  -1.224   9.431  0.00  0.00    +0.000 A 
ATOM    636  C6  A   B  32      -3.655  -2.070  10.520  0.00  0.00    +0.000 A 
ATOM    637  N6  A   B  32      -4.425  -3.109  10.869  0.00  0.00    +0.000 N 
ATOM    638  N1  A   B  32      -2.548  -1.813  11.248  0.00  0.00    +0.000 NA
ATOM    639  C2  A   B  32      -1.777  -0.774  10.900  0.00  0.00    +0.000 A 
ATOM    640  N3  A   B  32      -1.935   0.095   9.901  0.00  0.00    +0.000 NA
ATOM    641  C4  A   B  32      -3.044  -0.191   9.195  0.00  0.00    +0.000 A 
ATOM    642  H   A   B  32      -5.237  -3.315  10.352  0.00  0.00    +0.000 HD
ATOM    643  H   A   B  32      -4.179  -3.666  11.642  0.00  0.00    +0.000 HD
ENDBRANCH 246 632
BRANCH  66 644
ATOM    644  N9  A   B  14     -20.192  24.899  39.484  0.00  0.00    +0.000 N 
ATOM    645  C8  A   B  14     -19.066  25.655  39.282  0.00  0.00    +0.000 A 
ATOM    646  N7  A   B  14     -18.045  25.291  40.025  0.00  0.00    +0.000 NA
ATOM    647  C5  A   B  14     -18.534  24.222  40.767  0.00  0.00    +0.000 A 
ATOM    648  C6  A   B  14     -17.947  23.397  41.738  0.00  0.00    +0.000 A 
ATOM    649  N6  A   B  14     -16.682  23.527  42.155  0.00  0.00    +0.000 N 
ATOM    650  N1  A   B  14     -18.708  22.423  42.282  0.00  0.00    +0.000 NA
ATOM    651  C2  A   B  14     -19.975  22.299  41.869  0.00  0.00    +0.000 A 
ATOM    652  N3  A   B  14     -20.641  23.013  40.963  0.00  0.00    +0.000 NA
ATOM    653  C4  A   B  14     -19.851  23.972  40.443  0.00  0.00    +0.000 A 
ATOM    654  H   A   B  14     -16.108  24.230  41.773  0.00  0.00    +0.000 HD
ATOM    655  H   A   B  14     -16.326  22.920  42.843  0.00  0.00    +0.000 HD
ENDBRANCH  66 644
BRANCH 236 656
ATOM    656  N9  A   B  31      -8.082   1.305   9.168  0.00  0.00    +0.000 N 
ATOM    657  C8  A   B  31      -8.875   0.185   9.257  0.00  0.00    +0.000 A 
ATOM    658  N7  A   B  31      -8.486  -0.665  10.179  0.00  0.00    +0.000 NA
ATOM    659  C5  A   B  31      -7.361  -0.071  10.732  0.00  0.00    +0.000 A 
ATOM    660  C6  A   B  31      -6.482  -0.468  11.757  0.00  0.00    +0.000 A 
ATOM    661  N6  A   B  31      -6.608  -1.615  12.439  0.00  0.00    +0.000 N 
ATOM    662  N1  A   B  31      -5.459   0.357  12.064  0.00  0.00    +0.000 NA
ATOM    663  C2  A   B  31      -5.331   1.504  11.381  0.00  0.00    +0.000 A 
ATOM    664  N3  A   B  31      -6.093   1.989  10.401  0.00  0.00    +0.000 NA
ATOM    665  C4  A   B  31      -7.100   1.141  10.119  0.00  0.00    +0.000 A 
ATOM    666  H   A   B  31      -7.347  -2.232  12.232  0.00  0.00    +0.000 HD
ATOM    667  H   A   B  31      -5.962  -1.840  13.147  0.00  0.00    +0.000 HD
ENDBRANCH 236 656
BRANCH 226 668
ATOM    668  N9  A   B  30     -12.138   0.698  11.429  0.00  0.00    +0.000 N 
ATOM    669  C8  A   B  30     -12.348  -0.569  11.921  0.00  0.00    +0.000 A 
ATOM    670  N7  A   B  30     -11.425  -0.966  12.767  0.00  0.00    +0.000 NA
ATOM    671  C5  A   B  30     -10.549   0.109  12.838  0.00  0.00    +0.000 A 
ATOM    672  C6  A   B  30      -9.361   0.322  13.561  0.00  0.00    +0.000 A 
ATOM    673  N6  A   B  30      -8.826  -0.583  14.389  0.00  0.00    +0.000 N 
ATOM    674  N1  A   B  30      -8.731   1.505  13.402  0.00  0.00    +0.000 NA
ATOM    675  C2  A   B  30      -9.262   2.412  12.571  0.00  0.00    +0.000 A 
ATOM    676  N3  A   B  30     -10.375   2.332  11.838  0.00  0.00    +0.000 NA
ATOM    677  C4  A   B  30     -10.975   1.139  12.018  0.00  0.00    +0.000 A 
ATOM    678  H   A   B  30      -9.269  -1.453  14.520  0.00  0.00    +0.000 HD
ATOM    679  H   A   B  30      -7.990  -0.379  14.867  0.00  0.00    +0.000 HD
ENDBRANCH 226 668
BRANCH 216 680
ATOM    680  N9  A   B  29     -14.833  -0.605  14.978  0.00  0.00    +0.000 N 
ATOM    681  C8  A   B  29     -14.363  -1.677  15.697  0.00  0.00    +0.000 A 
ATOM    682  N7  A   B  29     -13.178  -1.477  16.226  0.00  0.00    +0.000 NA
ATOM    683  C5  A   B  29     -12.844  -0.188  15.827  0.00  0.00    +0.000 A 
ATOM    684  C6  A   B  29     -11.715   0.616  16.058  0.00  0.00    +0.000 A 
ATOM    685  N6  A   B  29     -10.659   0.222  16.782  0.00  0.00    +0.000 N 
ATOM    686  N1  A   B  29     -11.700   1.852  15.514  0.00  0.00    +0.000 NA
ATOM    687  C2  A   B  29     -12.752   2.248  14.787  0.00  0.00    +0.000 A 
ATOM    688  N3  A   B  29     -13.874   1.586  14.500  0.00  0.00    +0.000 NA
ATOM    689  C4  A   B  29     -13.855   0.360  15.056  0.00  0.00    +0.000 A 
ATOM    690  H   A   B  29      -9.895   0.830  16.910  0.00  0.00    +0.000 HD
ATOM    691  H   A   B  29     -10.647  -0.676  17.186  0.00  0.00    +0.000 HD
ENDBRANCH 216 680
BRANCH 116 692
ATOM    692  N9  A   B  19     -20.598  18.259  35.371  0.00  0.00    +0.000 N 
ATOM    693  C8  A   B  19     -20.468  17.400  36.433  0.00  0.00    +0.000 A 
ATOM    694  N7  A   B  19     -19.318  17.502  37.059  0.00  0.00    +0.000 NA
ATOM    695  C5  A   B  19     -18.644  18.496  36.360  0.00  0.00    +0.000 A 
ATOM    696  C6  A   B  19     -17.373  19.074  36.523  0.00  0.00    +0.000 A 
ATOM    697  N6  A   B  19     -16.513  18.715  37.485  0.00  0.00    +0.000 N 
ATOM    698  N1  A   B  19     -17.004  20.040  35.656  0.00  0.00    +0.000 NA
ATOM    699  C2  A   B  19     -17.863  20.399  34.688  0.00  0.00    +0.000 A 
ATOM    700  N3  A   B  19     -19.086  19.933  34.432  0.00  0.00    +0.000 NA
ATOM    701  C4  A   B  19     -19.421  18.971  35.316  0.00  0.00    +0.000 A 
ATOM    702  H   A   B  19     -15.635  19.156  37.550  0.00  0.00    +0.000 HD
ATOM    703  H   A   B  19     -16.759  18.010  38.127  0.00  0.00    +0.000 HD
ENDBRANCH 116 692
BRANCH 126 704
ATOM    704  N9  A   B  20     -17.360  17.869  32.030  0.00  0.00    +0.000 N 
ATOM    705  C8  A   B  20     -17.914  16.883  32.809  0.00  0.00    +0.000 A 
ATOM    706  N7  A   B  20     -17.189  16.571  33.859  0.00  0.00    +0.000 NA
ATOM    707  C5  A   B  20     -16.082  17.404  33.762  0.00  0.00    +0.000 A 
ATOM    708  C6  A   B  20     -14.941  17.564  34.566  0.00  0.00    +0.000 A 
ATOM    709  N6  A   B  20     -14.714  16.853  35.679  0.00  0.00    +0.000 N 
ATOM    710  N1  A   B  20     -14.026  18.481  34.186  0.00  0.00    +0.000 NA
ATOM    711  C2  A   B  20     -14.250  19.188  33.069  0.00  0.00    +0.000 A 
ATOM    712  N3  A   B  20     -15.284  19.132  32.231  0.00  0.00    +0.000 NA
ATOM    713  C4  A   B  20     -16.175  18.207  32.639  0.00  0.00    +0.000 A 
ATOM    714  H   A   B  20     -15.368  16.179  35.975  0.00  0.00    +0.000 HD
ATOM    715  H   A   B  20     -13.893  17.005  36.201  0.00  0.00    +0.000 HD
ENDBRANCH 126 704
BRANCH 136 716
ATOM    716  N9  A   B  21     -13.149  16.664  30.729  0.00  0.00    +0.000 N 
ATOM    717  C8  A   B  21     -14.219  15.829  30.937  0.00  0.00    +0.000 A 
ATOM    718  N7  A   B  21     -14.158  15.167  32.071  0.00  0.00    +0.000 NA
ATOM    719  C5  A   B  21     -12.968  15.593  32.645  0.00  0.00    +0.000 A 
ATOM    720  C6  A   B  21     -12.324  15.267  33.852  0.00  0.00    +0.000 A 
ATOM    721  N6  A   B  21     -12.812  14.390  34.739  0.00  0.00    +0.000 N 
ATOM    722  N1  A   B  21     -11.147  15.871  34.119  0.00  0.00    +0.000 NA
ATOM    723  C2  A   B  21     -10.657  16.745  33.230  0.00  0.00    +0.000 A 
ATOM    724  N3  A   B  21     -11.170  17.134  32.064  0.00  0.00    +0.000 NA
ATOM    725  C4  A   B  21     -12.338  16.512  31.829  0.00  0.00    +0.000 A 
ATOM    726  H   A   B  21     -13.669  13.938  34.564  0.00  0.00    +0.000 HD
ATOM    727  H   A   B  21     -12.314  14.197  35.566  0.00  0.00    +0.000 HD
ENDBRANCH 136 716
BRANCH 506 728
ATOM    728  N1  C   B  58     -13.540   2.976  36.586  0.00  0.00    +0.000 N 
ATOM    729  C2  C   B  58     -12.325   3.487  36.124  0.00  0.00    +0.000 A 
ATOM    730  O2  C   B  58     -11.265   2.987  36.531  0.00  0.00    +0.000 OA
ATOM    731  N3  C   B  58     -12.334   4.519  35.240  0.00  0.00    +0.000 NA
ATOM    732  C4  C   B  58     -13.495   5.033  34.824  0.00  0.00    +0.000 A 
ATOM    733  N4  C   B  58     -13.453   6.048  33.961  0.00  0.00    +0.000 N 
ATOM    734  C5  C   B  58     -14.744   4.530  35.287  0.00  0.00    +0.000 A 
ATOM    735  C6  C   B  58     -14.721   3.514  36.158  0.00  0.00    +0.000 A 
ATOM    736  H   C   B  58     -12.586   6.390  33.645  0.00  0.00    +0.000 HD
ATOM    737  H   C   B  58     -14.289   6.455  33.639  0.00  0.00    +0.000 HD
ENDBRANCH 506 728
BRANCH  96 738
ATOM    738  N1  C   B  17     -26.279  18.949  42.825  0.00  0.00    +0.000 N 
ATOM    739  C2  C   B  17     -26.866  19.099  41.561  0.00  0.00    +0.000 A 
ATOM    740  O2  C   B  17     -27.827  18.375  41.248  0.00  0.00    +0.000 OA
ATOM    741  N3  C   B  17     -26.367  20.035  40.710  0.00  0.00    +0.000 NA
ATOM    742  C4  C   B  17     -25.334  20.797  41.075  0.00  0.00    +0.000 A 
ATOM    743  N4  C   B  17     -24.883  21.702  40.205  0.00  0.00    +0.000 N 
ATOM    744  C5  C   B  17     -24.722  20.662  42.351  0.00  0.00    +0.000 A 
ATOM    745  C6  C   B  17     -25.220  19.734  43.187  0.00  0.00    +0.000 A 
ATOM    746  H   C   B  17     -25.310  21.792  39.322  0.00  0.00    +0.000 HD
ATOM    747  H   C   B  17     -24.123  22.280  40.445  0.00  0.00    +0.000 HD
ENDBRANCH  96 738
BRANCH 146 748
ATOM    748  N1  C   B  22      -9.458  14.049  31.114  0.00  0.00    +0.000 N 
ATOM    749  C2  C   B  22      -9.329  13.525  32.405  0.00  0.00    +0.000 A 
ATOM    750  O2  C   B  22      -8.294  13.750  33.047  0.00  0.00    +0.000 OA
ATOM    751  N3  C   B  22     -10.338  12.781  32.923  0.00  0.00    +0.000 NA
ATOM    752  C4  C   B  22     -11.440  12.551  32.205  0.00  0.00    +0.000 A 
ATOM    753  N4  C   B  22     -12.406  11.814  32.755  0.00  0.00    +0.000 N 
ATOM    754  C5  C   B  22     -11.595  13.070  30.890  0.00  0.00    +0.000 A 
ATOM    755  C6  C   B  22     -10.590  13.806  30.389  0.00  0.00    +0.000 A 
ATOM    756  H   C   B  22     -13.230  11.627  32.250  0.00  0.00    +0.000 HD
ATOM    757  H   C   B  22     -12.295  11.457  33.666  0.00  0.00    +0.000 HD
ENDBRANCH 146 748
BRANCH  56 758
ATOM    758  N1  C   B  13     -17.501  24.440  36.004  0.00  0.00    +0.000 N 
ATOM    759  C2  C   B  13     -18.296  23.399  36.500  0.00  0.00    +0.000 A 
ATOM    760  O2  C   B  13     -19.404  23.186  35.985  0.00  0.00    +0.000 OA
ATOM    761  N3  C   B  13     -17.835  22.648  37.532  0.00  0.00    +0.000 NA
ATOM    762  C4  C   B  13     -16.637  22.904  38.063  0.00  0.00    +0.000 A 
ATOM    763  N4  C   B  13     -16.228  22.139  39.075  0.00  0.00    +0.000 N 
ATOM    764  C5  C   B  13     -15.812  23.957  37.579  0.00  0.00    +0.000 A 
ATOM    765  C6  C   B  13     -16.279  24.694  36.556  0.00  0.00    +0.000 A 
ATOM    766  H   C   B  13     -16.803  21.412  39.406  0.00  0.00    +0.000 HD
ATOM    767  H   C   B  13     -15.351  22.301  39.492  0.00  0.00    +0.000 HD
ENDBRANCH  56 758
BRANCH 326 768
ATOM    768  N1  C   B  40      -7.652 -16.896 -10.537  0.00  0.00    +0.000 N 
ATOM    769  C2  C   B  40      -8.568 -16.123 -11.264  0.00  0.00    +0.000 A 
ATOM    770  O2  C   B  40      -8.177 -15.495 -12.256  0.00  0.00    +0.000 OA
ATOM    771  N3  C   B  40      -9.862 -16.087 -10.859  0.00  0.00    +0.000 NA
ATOM    772  C4  C   B  40     -10.252 -16.776  -9.785  0.00  0.00    +0.000 A 
ATOM    773  N4  C   B  40     -11.537 -16.707  -9.427  0.00  0.00    +0.000 N 
ATOM    774  C5  C   B  40      -9.340 -17.567  -9.034  0.00  0.00    +0.000 A 
ATOM    775  C6  C   B  40      -8.067 -17.600  -9.442  0.00  0.00    +0.000 A 
ATOM    776  H   C   B  40     -12.165 -16.158  -9.950  0.00  0.00    +0.000 HD
ATOM    777  H   C   B  40     -11.856 -17.205  -8.640  0.00  0.00    +0.000 HD
ENDBRANCH 326 768
BRANCH  86 778
ATOM    778  N1  C   B  16     -26.053  23.135  45.163  0.00  0.00    +0.000 N 
ATOM    779  C2  C   B  16     -27.157  22.647  44.456  0.00  0.00    +0.000 A 
ATOM    780  O2  C   B  16     -27.939  21.861  45.012  0.00  0.00    +0.000 OA
ATOM    781  N3  C   B  16     -27.350  23.049  43.175  0.00  0.00    +0.000 NA
ATOM    782  C4  C   B  16     -26.495  23.897  42.600  0.00  0.00    +0.000 A 
ATOM    783  N4  C   B  16     -26.729  24.266  41.340  0.00  0.00    +0.000 N 
ATOM    784  C5  C   B  16     -25.368  24.405  43.296  0.00  0.00    +0.000 A 
ATOM    785  C6  C   B  16     -25.185  24.005  44.565  0.00  0.00    +0.000 A 
ATOM    786  H   C   B  16     -27.512  23.911  40.861  0.00  0.00    +0.000 HD
ATOM    787  H   C   B  16     -26.119  24.893  40.889  0.00  0.00    +0.000 HD
ENDBRANCH  86 778
BRANCH 366 788
ATOM    788  N1  C   B  44     -11.664 -12.268   1.189  0.00  0.00    +0.000 N 
ATOM    789  C2  C   B  44     -11.141 -13.556   1.055  0.00  0.00    +0.000 A 
ATOM    790  O2  C   B  44     -11.860 -14.532   1.308  0.00  0.00    +0.000 OA
ATOM    791  N3  C   B  44      -9.855 -13.708   0.651  0.00  0.00    +0.000 NA
ATOM    792  C4  C   B  44      -9.104 -12.634   0.389  0.00  0.00    +0.000 A 
ATOM    793  N4  C   B  44      -7.844 -12.837  -0.005  0.00  0.00    +0.000 N 
ATOM    794  C5  C   B  44      -9.614 -11.314   0.520  0.00  0.00    +0.000 A 
ATOM    795  C6  C   B  44     -10.887 -11.175   0.920  0.00  0.00    +0.000 A 
ATOM    796  H   C   B  44      -7.262 -12.069  -0.207  0.00  0.00    +0.000 HD
ATOM    797  H   C   B  44      -7.498 -13.754  -0.094  0.00  0.00    +0.000 HD
ENDBRANCH 366 788
BRANCH 206 798
ATOM    798  N1  U   B  28     -15.543  -2.059  19.377  0.00  0.00    +0.000 N 
ATOM    799  C2  U   B  28     -15.274  -0.759  18.980  0.00  0.00    +0.000 A 
ATOM    800  O2  U   B  28     -16.110  -0.039  18.462  0.00  0.00    +0.000 OA
ATOM    801  N3  U   B  28     -13.986  -0.331  19.211  0.00  0.00    +0.000 N 
ATOM    802  C4  U   B  28     -12.962  -1.057  19.786  0.00  0.00    +0.000 A 
ATOM    803  O4  U   B  28     -11.855  -0.534  19.928  0.00  0.00    +0.000 OA
ATOM    804  C5  U   B  28     -13.320  -2.392  20.166  0.00  0.00    +0.000 A 
ATOM    805  C6  U   B  28     -14.565  -2.837  19.953  0.00  0.00    +0.000 A 
ATOM    806  H   U   B  28     -13.773   0.590  18.937  0.00  0.00    +0.000 HD
ENDBRANCH 206 798
BRANCH 536 807
ATOM    807  N9  A   B  61      -7.997   8.452  47.125  0.00  0.00    +0.000 N 
ATOM    808  C8  A   B  61      -7.267   9.183  46.225  0.00  0.00    +0.000 A 
ATOM    809  N7  A   B  61      -5.981   8.889  46.220  0.00  0.00    +0.000 NA
ATOM    810  C5  A   B  61      -5.862   7.900  47.189  0.00  0.00    +0.000 A 
ATOM    811  C6  A   B  61      -4.755   7.174  47.665  0.00  0.00    +0.000 A 
ATOM    812  N1  A   B  61      -4.977   6.263  48.632  0.00  0.00    +0.000 NA
ATOM    813  C2  A   B  61      -6.229   6.100  49.083  0.00  0.00    +0.000 A 
ATOM    814  N3  A   B  61      -7.348   6.723  48.716  0.00  0.00    +0.000 NA
ATOM    815  C4  A   B  61      -7.090   7.622  47.750  0.00  0.00    +0.000 A 
BRANCH 811 816
ATOM    816  N6  A   B  61      -3.507   7.339  47.214  0.00  0.00    +0.000 N 
ATOM    817  H   A   B  61      -3.322   7.999  46.508  0.00  0.00    +0.000 HD
ATOM    818  H   A   B  61      -2.773   6.800  47.588  0.00  0.00    +0.000 HD
ENDBRANCH 811 816
ENDBRANCH 536 807
BRANCH  26 819
ATOM    819  N1  U   B  10      -7.170  16.064  37.005  0.00  0.00    +0.000 N 
ATOM    820  C2  U   B  10      -8.134  16.165  36.014  0.00  0.00    +0.000 A 
ATOM    821  O2  U   B  10      -7.938  16.731  34.957  0.00  0.00    +0.000 OA
ATOM    822  N3  U   B  10      -9.343  15.576  36.309  0.00  0.00    +0.000 N 
ATOM    823  C4  U   B  10      -9.682  14.910  37.465  0.00  0.00    +0.000 A 
ATOM    824  O4  U   B  10     -10.815  14.436  37.582  0.00  0.00    +0.000 OA
ATOM    825  C5  U   B  10      -8.633  14.845  38.440  0.00  0.00    +0.000 A 
ATOM    826  C6  U   B  10      -7.442  15.408  38.182  0.00  0.00    +0.000 A 
ATOM    827  H   U   B  10     -10.041  15.638  35.618  0.00  0.00    +0.000 HD
ENDBRANCH  26 819
BRANCH  36 828
ATOM    828  N1  U   B  11      -9.470  20.135  35.259  0.00  0.00    +0.000 N 
ATOM    829  C2  U   B  11     -10.671  19.856  34.620  0.00  0.00    +0.000 A 
ATOM    830  O2  U   B  11     -10.951  20.291  33.519  0.00  0.00    +0.000 OA
ATOM    831  N3  U   B  11     -11.532  19.046  35.325  0.00  0.00    +0.000 N 
ATOM    832  C4  U   B  11     -11.323  18.498  36.571  0.00  0.00    +0.000 A 
ATOM    833  O4  U   B  11     -12.196  17.788  37.076  0.00  0.00    +0.000 OA
ATOM    834  C5  U   B  11     -10.063  18.831  37.162  0.00  0.00    +0.000 A 
ATOM    835  C6  U   B  11      -9.200  19.619  36.504  0.00  0.00    +0.000 A 
ATOM    836  H   U   B  11     -12.390  18.836  34.891  0.00  0.00    +0.000 HD
ENDBRANCH  36 828
BRANCH  46 837
ATOM    837  N1  U   B  12     -13.161  22.998  34.771  0.00  0.00    +0.000 N 
ATOM    838  C2  U   B  12     -14.329  22.257  34.696  0.00  0.00    +0.000 A 
ATOM    839  O2  U   B  12     -15.127  22.370  33.780  0.00  0.00    +0.000 OA
ATOM    840  N3  U   B  12     -14.532  21.376  35.736  0.00  0.00    +0.000 N 
ATOM    841  C4  U   B  12     -13.702  21.168  36.816  0.00  0.00    +0.000 A 
ATOM    842  O4  U   B  12     -14.019  20.341  37.673  0.00  0.00    +0.000 OA
ATOM    843  C5  U   B  12     -12.517  21.971  36.825  0.00  0.00    +0.000 A 
ATOM    844  C6  U   B  12     -12.292  22.839  35.827  0.00  0.00    +0.000 A 
ATOM    845  H   U   B  12     -15.356  20.839  35.704  0.00  0.00    +0.000 HD
ENDBRANCH  46 837
BRANCH  76 846
ATOM    846  N1  U   B  15     -24.372  29.756  45.802  0.00  0.00    +0.000 N 
ATOM    847  C2  U   B  15     -24.208  30.786  46.708  0.00  0.00    +0.000 A 
ATOM    848  O2  U   B  15     -23.223  30.883  47.425  0.00  0.00    +0.000 OA
ATOM    849  N3  U   B  15     -25.233  31.701  46.744  0.00  0.00    +0.000 N 
ATOM    850  C4  U   B  15     -26.381  31.688  45.987  0.00  0.00    +0.000 A 
ATOM    851  O4  U   B  15     -27.208  32.589  46.134  0.00  0.00    +0.000 OA
ATOM    852  C5  U   B  15     -26.488  30.592  45.082  0.00  0.00    +0.000 A 
ATOM    853  C6  U   B  15     -25.500  29.683  45.019  0.00  0.00    +0.000 A 
ATOM    854  H   U   B  15     -25.135  32.446  47.380  0.00  0.00    +0.000 HD
ENDBRANCH  76 846
BRANCH 446 855
ATOM    855  N1  U   B  52      -8.733   5.786  15.208  0.00  0.00    +0.000 N 
ATOM    856  C2  U   B  52      -9.716   4.821  15.070  0.00  0.00    +0.000 A 
ATOM    857  O2  U   B  52     -10.623   4.915  14.261  0.00  0.00    +0.000 OA
ATOM    858  N3  U   B  52      -9.598   3.738  15.912  0.00  0.00    +0.000 N 
ATOM    859  C4  U   B  52      -8.622   3.530  16.860  0.00  0.00    +0.000 A 
ATOM    860  O4  U   B  52      -8.650   2.506  17.544  0.00  0.00    +0.000 OA
ATOM    861  C5  U   B  52      -7.643   4.571  16.946  0.00  0.00    +0.000 A 
ATOM    862  C6  U   B  52      -7.731   5.636  16.136  0.00  0.00    +0.000 A 
ATOM    863  H   U   B  52     -10.285   3.038  15.827  0.00  0.00    +0.000 HD
ENDBRANCH 446 855
BRANCH 376 864
ATOM    864  N1  U   B  45      -8.861 -14.353   5.842  0.00  0.00    +0.000 N 
ATOM    865  C2  U   B  45      -7.560 -14.790   6.028  0.00  0.00    +0.000 A 
ATOM    866  O2  U   B  45      -7.283 -15.862   6.530  0.00  0.00    +0.000 OA
ATOM    867  N3  U   B  45      -6.584 -13.914   5.612  0.00  0.00    +0.000 N 
ATOM    868  C4  U   B  45      -6.768 -12.674   5.036  0.00  0.00    +0.000 A 
ATOM    869  O4  U   B  45      -5.783 -12.007   4.710  0.00  0.00    +0.000 OA
ATOM    870  C5  U   B  45      -8.135 -12.295   4.873  0.00  0.00    +0.000 A 
ATOM    871  C6  U   B  45      -9.113 -13.129   5.269  0.00  0.00    +0.000 A 
ATOM    872  H   U   B  45      -5.652 -14.204   5.739  0.00  0.00    +0.000 HD
ENDBRANCH 376 864
BRANCH 396 873
ATOM    873  N1  U   B  47      -3.259 -11.815  12.476  0.00  0.00    +0.000 N 
ATOM    874  C2  U   B  47      -2.375 -11.021  11.767  0.00  0.00    +0.000 A 
ATOM    875  O2  U   B  47      -1.166 -11.133  11.858  0.00  0.00    +0.000 OA
ATOM    876  N3  U   B  47      -2.959 -10.086  10.944  0.00  0.00    +0.000 N 
ATOM    877  C4  U   B  47      -4.309  -9.870  10.763  0.00  0.00    +0.000 A 
ATOM    878  O4  U   B  47      -4.681  -8.989   9.987  0.00  0.00    +0.000 OA
ATOM    879  C5  U   B  47      -5.158 -10.729  11.532  0.00  0.00    +0.000 A 
ATOM    880  C6  U   B  47      -4.617 -11.650  12.341  0.00  0.00    +0.000 A 
ATOM    881  H   U   B  47      -2.348  -9.510  10.430  0.00  0.00    +0.000 HD
ENDBRANCH 396 873
BRANCH 406 882
ATOM    882  N9  A   B  48      -0.777  -8.324  14.246  0.00  0.00    +0.000 N 
ATOM    883  C8  A   B  48      -2.094  -8.686  14.382  0.00  0.00    +0.000 A 
ATOM    884  N7  A   B  48      -2.893  -8.088  13.531  0.00  0.00    +0.000 NA
ATOM    885  C5  A   B  48      -2.046  -7.278  12.786  0.00  0.00    +0.000 A 
ATOM    886  C6  A   B  48      -2.275  -6.388  11.723  0.00  0.00    +0.000 A 
ATOM    887  N1  A   B  48      -1.214  -5.739  11.208  0.00  0.00    +0.000 NA
ATOM    888  C2  A   B  48      -0.004  -5.970  11.729  0.00  0.00    +0.000 A 
ATOM    889  N3  A   B  48       0.339  -6.781  12.724  0.00  0.00    +0.000 NA
ATOM    890  C4  A   B  48      -0.741  -7.413  13.216  0.00  0.00    +0.000 A 
BRANCH 886 891
ATOM    891  N6  A   B  48      -3.488  -6.153  11.200  0.00  0.00    +0.000 N 
ATOM    892  H   A   B  48      -3.588  -5.518  10.455  0.00  0.00    +0.000 HD
ATOM    893  H   A   B  48      -4.278  -6.616  11.562  0.00  0.00    +0.000 HD
ENDBRANCH 886 891
ENDBRANCH 406 882
BRANCH 356 894
ATOM    894  N9  A   B  43     -11.804 -10.115  -2.653  0.00  0.00    +0.000 N 
ATOM    895  C8  A   B  43     -10.475 -10.004  -2.960  0.00  0.00    +0.000 A 
ATOM    896  N7  A   B  43      -9.838 -11.150  -2.978  0.00  0.00    +0.000 NA
ATOM    897  C5  A   B  43     -10.814 -12.081  -2.657  0.00  0.00    +0.000 A 
ATOM    898  C6  A   B  43     -10.783 -13.479  -2.512  0.00  0.00    +0.000 A 
ATOM    899  N1  A   B  43     -11.932 -14.104  -2.188  0.00  0.00    +0.000 NA
ATOM    900  C2  A   B  43     -13.034 -13.365  -2.021  0.00  0.00    +0.000 A 
ATOM    901  N3  A   B  43     -13.191 -12.046  -2.131  0.00  0.00    +0.000 NA
ATOM    902  C4  A   B  43     -12.029 -11.457  -2.455  0.00  0.00    +0.000 A 
BRANCH 898 903
ATOM    903  N6  A   B  43      -9.675 -14.216  -2.676  0.00  0.00    +0.000 N 
ATOM    904  H   A   B  43      -8.825 -13.780  -2.913  0.00  0.00    +0.000 HD
ATOM    905  H   A   B  43      -9.712 -15.193  -2.560  0.00  0.00    +0.000 HD
ENDBRANCH 898 903
ENDBRANCH 356 894
BRANCH 346 906
ATOM    906  N1  U   B  42     -10.370  -9.707  -6.628  0.00  0.00    +0.000 N 
ATOM    907  C2  U   B  42     -11.651 -10.228  -6.602  0.00  0.00    +0.000 A 
ATOM    908  O2  U   B  42     -12.635  -9.569  -6.881  0.00  0.00    +0.000 OA
ATOM    909  N3  U   B  42     -11.734 -11.551  -6.239  0.00  0.00    +0.000 N 
ATOM    910  C4  U   B  42     -10.691 -12.388  -5.906  0.00  0.00    +0.000 A 
ATOM    911  O4  U   B  42     -10.925 -13.556  -5.600  0.00  0.00    +0.000 OA
ATOM    912  C5  U   B  42      -9.400 -11.772  -5.956  0.00  0.00    +0.000 A 
ATOM    913  C6  U   B  42      -9.287 -10.484  -6.306  0.00  0.00    +0.000 A 
ATOM    914  H   U   B  42     -12.637 -11.943  -6.214  0.00  0.00    +0.000 HD
ENDBRANCH 346 906
BRANCH 416 915
ATOM    915  N1  U   B  49       0.040  -3.808  14.933  0.00  0.00    +0.000 N 
ATOM    916  C2  U   B  49      -0.386  -3.113  13.812  0.00  0.00    +0.000 A 
ATOM    917  O2  U   B  49       0.342  -2.369  13.180  0.00  0.00    +0.000 OA
ATOM    918  N3  U   B  49      -1.696  -3.327  13.456  0.00  0.00    +0.000 N 
ATOM    919  C4  U   B  49      -2.607  -4.143  14.094  0.00  0.00    +0.000 A 
ATOM    920  O4  U   B  49      -3.756  -4.231  13.654  0.00  0.00    +0.000 OA
ATOM    921  C5  U   B  49      -2.092  -4.822  15.244  0.00  0.00    +0.000 A 
ATOM    922  C6  U   B  49      -0.817  -4.637  15.613  0.00  0.00    +0.000 A 
ATOM    923  H   U   B  49      -2.019  -2.846  12.660  0.00  0.00    +0.000 HD
ENDBRANCH 416 915
BRANCH 336 924
ATOM    924  N1  U   B  41      -8.305 -12.231  -9.553  0.00  0.00    +0.000 N 
ATOM    925  C2  U   B  41      -9.656 -11.949  -9.671  0.00  0.00    +0.000 A 
ATOM    926  O2  U   B  41     -10.076 -10.960 -10.239  0.00  0.00    +0.000 OA
ATOM    927  N3  U   B  41     -10.497 -12.875  -9.096  0.00  0.00    +0.000 N 
ATOM    928  C4  U   B  41     -10.133 -14.026  -8.430  0.00  0.00    +0.000 A 
ATOM    929  O4  U   B  41     -11.007 -14.760  -7.968  0.00  0.00    +0.000 OA
ATOM    930  C5  U   B  41      -8.721 -14.244  -8.350  0.00  0.00    +0.000 A 
ATOM    931  C6  U   B  41      -7.877 -13.362  -8.903  0.00  0.00    +0.000 A 
ATOM    932  H   U   B  41     -11.462 -12.696  -9.168  0.00  0.00    +0.000 HD
ENDBRANCH 336 924
BRANCH 426 933
ATOM    933  N1  U   B  50      -1.335   0.532  14.888  0.00  0.00    +0.000 N 
ATOM    934  C2  U   B  50      -2.311   0.722  13.922  0.00  0.00    +0.000 A 
ATOM    935  O2  U   B  50      -2.204   1.541  13.031  0.00  0.00    +0.000 OA
ATOM    936  N3  U   B  50      -3.415  -0.091  14.040  0.00  0.00    +0.000 N 
ATOM    937  C4  U   B  50      -3.642  -1.048  15.006  0.00  0.00    +0.000 A 
ATOM    938  O4  U   B  50      -4.688  -1.698  14.980  0.00  0.00    +0.000 OA
ATOM    939  C5  U   B  50      -2.590  -1.183  15.966  0.00  0.00    +0.000 A 
ATOM    940  C6  U   B  50      -1.499  -0.409  15.876  0.00  0.00    +0.000 A 
ATOM    941  H   U   B  50      -4.119   0.023  13.361  0.00  0.00    +0.000 HD
ENDBRANCH 426 933
BRANCH 316 942
ATOM    942  N1  U   B  39     -10.012 -22.070  -6.837  0.00  0.00    +0.000 N 
ATOM    943  C2  U   B  39     -10.967 -21.331  -7.515  0.00  0.00    +0.000 A 
ATOM    944  O2  U   B  39     -10.806 -20.913  -8.647  0.00  0.00    +0.000 OA
ATOM    945  N3  U   B  39     -12.125 -21.087  -6.818  0.00  0.00    +0.000 N 
ATOM    946  C4  U   B  39     -12.422 -21.504  -5.538  0.00  0.00    +0.000 A 
ATOM    947  O4  U   B  39     -13.509 -21.209  -5.046  0.00  0.00    +0.000 OA
ATOM    948  C5  U   B  39     -11.389 -22.266  -4.903  0.00  0.00    +0.000 A 
ATOM    949  C6  U   B  39     -10.243 -22.518  -5.562  0.00  0.00    +0.000 A 
ATOM    950  H   U   B  39     -12.815 -20.559  -7.281  0.00  0.00    +0.000 HD
ENDBRANCH 316 942
BRANCH 436 951
ATOM    951  N1  U   B  51      -4.514   3.921  14.718  0.00  0.00    +0.000 N 
ATOM    952  C2  U   B  51      -5.690   3.507  14.111  0.00  0.00    +0.000 A 
ATOM    953  O2  U   B  51      -6.177   4.083  13.158  0.00  0.00    +0.000 OA
ATOM    954  N3  U   B  51      -6.274   2.389  14.665  0.00  0.00    +0.000 N 
ATOM    955  C4  U   B  51      -5.816   1.662  15.740  0.00  0.00    +0.000 A 
ATOM    956  O4  U   B  51      -6.453   0.680  16.123  0.00  0.00    +0.000 OA
ATOM    957  C5  U   B  51      -4.597   2.151  16.313  0.00  0.00    +0.000 A 
ATOM    958  C6  U   B  51      -4.003   3.236  15.795  0.00  0.00    +0.000 A 
ATOM    959  H   U   B  51      -7.109   2.077  14.247  0.00  0.00    +0.000 HD
ENDBRANCH 436 951
BRANCH 306 960
ATOM    960  N1  U   B  38      -7.326 -18.021  -0.911  0.00  0.00    +0.000 N 
ATOM    961  C2  U   B  38      -7.664 -16.855  -1.579  0.00  0.00    +0.000 A 
ATOM    962  O2  U   B  38      -8.801 -16.599  -1.931  0.00  0.00    +0.000 OA
ATOM    963  N3  U   B  38      -6.617 -15.998  -1.824  0.00  0.00    +0.000 N 
ATOM    964  C4  U   B  38      -5.294 -16.180  -1.473  0.00  0.00    +0.000 A 
ATOM    965  O4  U   B  38      -4.468 -15.315  -1.765  0.00  0.00    +0.000 OA
ATOM    966  C5  U   B  38      -5.027 -17.409  -0.785  0.00  0.00    +0.000 A 
ATOM    967  C6  U   B  38      -6.028 -18.267  -0.532  0.00  0.00    +0.000 A 
ATOM    968  H   U   B  38      -6.834 -15.165  -2.301  0.00  0.00    +0.000 HD
ENDBRANCH 306 960
BRANCH 296 969
ATOM    969  N9  A   B  37      -5.163 -16.984   3.378  0.00  0.00    +0.000 N 
ATOM    970  C8  A   B  37      -3.892 -16.534   3.124  0.00  0.00    +0.000 A 
ATOM    971  N7  A   B  37      -3.854 -15.450   2.384  0.00  0.00    +0.000 NA
ATOM    972  C5  A   B  37      -5.194 -15.170   2.135  0.00  0.00    +0.000 A 
ATOM    973  C6  A   B  37      -5.832 -14.149   1.411  0.00  0.00    +0.000 A 
ATOM    974  N1  A   B  37      -7.178 -14.159   1.363  0.00  0.00    +0.000 NA
ATOM    975  C2  A   B  37      -7.834 -15.134   2.002  0.00  0.00    +0.000 A 
ATOM    976  N3  A   B  37      -7.350 -16.147   2.716  0.00  0.00    +0.000 NA
ATOM    977  C4  A   B  37      -6.007 -16.106   2.742  0.00  0.00    +0.000 A 
BRANCH 973 978
ATOM    978  N6  A   B  37      -5.174 -13.170   0.769  0.00  0.00    +0.000 N 
ATOM    979  H   A   B  37      -5.676 -12.480   0.277  0.00  0.00    +0.000 HD
ATOM    980  H   A   B  37      -4.190 -13.142   0.790  0.00  0.00    +0.000 HD
ENDBRANCH 973 978
ENDBRANCH 296 969
BRANCH 156 981
ATOM    981  N1  U   B  23      -7.055  10.041  32.191  0.00  0.00    +0.000 N 
ATOM    982  C2  U   B  23      -7.650   9.365  33.244  0.00  0.00    +0.000 A 
ATOM    983  O2  U   B  23      -7.028   8.980  34.216  0.00  0.00    +0.000 OA
ATOM    984  N3  U   B  23      -9.002   9.155  33.115  0.00  0.00    +0.000 N 
ATOM    985  C4  U   B  23      -9.804   9.541  32.061  0.00  0.00    +0.000 A 
ATOM    986  O4  U   B  23     -11.006   9.279  32.087  0.00  0.00    +0.000 OA
ATOM    987  C5  U   B  23      -9.116  10.230  31.013  0.00  0.00    +0.000 A 
ATOM    988  C6  U   B  23      -7.796  10.452  31.112  0.00  0.00    +0.000 A 
ATOM    989  H   U   B  23      -9.445   8.678  33.853  0.00  0.00    +0.000 HD
ENDBRANCH 156 981
BRANCH 286 990
ATOM    990  N1  U   B  36      -1.591 -14.283   5.673  0.00  0.00    +0.000 N 
ATOM    991  C2  U   B  36      -2.905 -13.902   5.461  0.00  0.00    +0.000 A 
ATOM    992  O2  U   B  36      -3.844 -14.401   6.056  0.00  0.00    +0.000 OA
ATOM    993  N3  U   B  36      -3.085 -12.917   4.522  0.00  0.00    +0.000 N 
ATOM    994  C4  U   B  36      -2.107 -12.282   3.785  0.00  0.00    +0.000 A 
ATOM    995  O4  U   B  36      -2.429 -11.412   2.976  0.00  0.00    +0.000 OA
ATOM    996  C5  U   B  36      -0.774 -12.726   4.058  0.00  0.00    +0.000 A 
ATOM    997  C6  U   B  36      -0.567 -13.689   4.973  0.00  0.00    +0.000 A 
ATOM    998  H   U   B  36      -4.013 -12.633   4.357  0.00  0.00    +0.000 HD
ENDBRANCH 286 990
BRANCH 276 999
ATOM    999  N9  A   B  35       1.272 -11.015   7.270  0.00  0.00    +0.000 N 
ATOM   1000  C8  A   B  35       1.210 -10.103   6.243  0.00  0.00    +0.000 A 
ATOM   1001  N7  A   B  35      -0.015  -9.782   5.901  0.00  0.00    +0.000 NA
ATOM   1002  C5  A   B  35      -0.813 -10.534   6.753  0.00  0.00    +0.000 A 
ATOM   1003  C6  A   B  35      -2.205 -10.653   6.900  0.00  0.00    +0.000 A 
ATOM   1004  N1  A   B  35      -2.668 -11.496   7.846  0.00  0.00    +0.000 NA
ATOM   1005  C2  A   B  35      -1.788 -12.170   8.591  0.00  0.00    +0.000 A 
ATOM   1006  N3  A   B  35      -0.458 -12.142   8.550  0.00  0.00    +0.000 NA
ATOM   1007  C4  A   B  35      -0.033 -11.297   7.598  0.00  0.00    +0.000 A 
BRANCH10031008
ATOM   1008  N6  A   B  35      -3.088  -9.980   6.152  0.00  0.00    +0.000 N 
ATOM   1009  H   A   B  35      -2.772  -9.360   5.456  0.00  0.00    +0.000 HD
ATOM   1010  H   A   B  35      -4.054 -10.105   6.298  0.00  0.00    +0.000 HD
ENDBRANCH10031008
ENDBRANCH 276 999
BRANCH 2561011
ATOM   1011  N1  U   B  33       0.079  -2.410   7.808  0.00  0.00    +0.000 N 
ATOM   1012  C2  U   B  33       0.021  -3.281   8.886  0.00  0.00    +0.000 A 
ATOM   1013  O2  U   B  33       0.938  -3.422   9.672  0.00  0.00    +0.000 OA
ATOM   1014  N3  U   B  33      -1.158  -3.980   9.013  0.00  0.00    +0.000 N 
ATOM   1015  C4  U   B  33      -2.258  -3.905   8.188  0.00  0.00    +0.000 A 
ATOM   1016  O4  U   B  33      -3.249  -4.597   8.426  0.00  0.00    +0.000 OA
ATOM   1017  C5  U   B  33      -2.124  -2.990   7.096  0.00  0.00    +0.000 A 
ATOM   1018  C6  U   B  33      -0.987  -2.291   6.949  0.00  0.00    +0.000 A 
ATOM   1019  H   U   B  33      -1.222  -4.600   9.775  0.00  0.00    +0.000 HD
ENDBRANCH 2561011
BRANCH 4861020
ATOM   1020  N9  A   B  56     -18.040   2.115  28.229  0.00  0.00    +0.000 N 
ATOM   1021  C8  A   B  56     -18.168   3.371  27.689  0.00  0.00    +0.000 A 
ATOM   1022  N7  A   B  56     -17.035   4.032  27.615  0.00  0.00    +0.000 NA
ATOM   1023  C5  A   B  56     -16.101   3.155  28.147  0.00  0.00    +0.000 A 
ATOM   1024  C6  A   B  56     -14.716   3.256  28.355  0.00  0.00    +0.000 A 
ATOM   1025  N1  A   B  56     -14.085   2.202  28.909  0.00  0.00    +0.000 NA
ATOM   1026  C2  A   B  56     -14.801   1.118  29.229  0.00  0.00    +0.000 A 
ATOM   1027  N3  A   B  56     -16.108   0.902  29.083  0.00  0.00    +0.000 NA
ATOM   1028  C4  A   B  56     -16.706   1.973  28.530  0.00  0.00    +0.000 A 
BRANCH10241029
ATOM   1029  N6  A   B  56     -13.998   4.346  28.037  0.00  0.00    +0.000 N 
ATOM   1030  H   A   B  56     -14.441   5.126  27.631  0.00  0.00    +0.000 HD
ATOM   1031  H   A   B  56     -13.029   4.365  28.210  0.00  0.00    +0.000 HD
ENDBRANCH10241029
ENDBRANCH 4861020
BRANCH 4961032
ATOM   1032  N9  A   B  57     -16.063   1.865  32.669  0.00  0.00    +0.000 N 
ATOM   1033  C8  A   B  57     -16.819   2.818  32.041  0.00  0.00    +0.000 A 
ATOM   1034  N7  A   B  57     -16.116   3.810  31.547  0.00  0.00    +0.000 NA
ATOM   1035  C5  A   B  57     -14.807   3.491  31.876  0.00  0.00    +0.000 A 
ATOM   1036  C6  A   B  57     -13.584   4.138  31.637  0.00  0.00    +0.000 A 
ATOM   1037  N1  A   B  57     -12.464   3.553  32.098  0.00  0.00    +0.000 NA
ATOM   1038  C2  A   B  57     -12.568   2.392  32.754  0.00  0.00    +0.000 A 
ATOM   1039  N3  A   B  57     -13.660   1.683  33.040  0.00  0.00    +0.000 NA
ATOM   1040  C4  A   B  57     -14.760   2.296  32.566  0.00  0.00    +0.000 A 
BRANCH10361041
ATOM   1041  N6  A   B  57     -13.481   5.305  30.982  0.00  0.00    +0.000 N 
ATOM   1042  H   A   B  57     -14.289   5.749  30.637  0.00  0.00    +0.000 HD
ATOM   1043  H   A   B  57     -12.597   5.717  30.847  0.00  0.00    +0.000 HD
ENDBRANCH10361041
ENDBRANCH 4961032
BRANCH 3861044
ATOM   1044  N1  U   B  46      -6.483 -13.884   9.628  0.00  0.00    +0.000 N 
ATOM   1045  C2  U   B  46      -5.206 -13.495   9.272  0.00  0.00    +0.000 A 
ATOM   1046  O2  U   B  46      -4.213 -14.126   9.586  0.00  0.00    +0.000 OA
ATOM   1047  N3  U   B  46      -5.132 -12.338   8.534  0.00  0.00    +0.000 N 
ATOM   1048  C4  U   B  46      -6.183 -11.548   8.126  0.00  0.00    +0.000 A 
ATOM   1049  O4  U   B  46      -5.955 -10.534   7.464  0.00  0.00    +0.000 OA
ATOM   1050  C5  U   B  46      -7.470 -12.014   8.536  0.00  0.00    +0.000 A 
ATOM   1051  C6  U   B  46      -7.574 -13.140   9.254  0.00  0.00    +0.000 A 
ATOM   1052  H   U   B  46      -4.231 -12.043   8.269  0.00  0.00    +0.000 HD
ENDBRANCH 3861044
BRANCH 1961053
ATOM   1053  N1  U   B  27     -14.501  -2.577  23.878  0.00  0.00    +0.000 N 
ATOM   1054  C2  U   B  27     -14.955  -1.418  23.269  0.00  0.00    +0.000 A 
ATOM   1055  O2  U   B  27     -16.125  -1.236  22.982  0.00  0.00    +0.000 OA
ATOM   1056  N3  U   B  27     -13.985  -0.477  23.007  0.00  0.00    +0.000 N 
ATOM   1057  C4  U   B  27     -12.638  -0.575  23.284  0.00  0.00    +0.000 A 
ATOM   1058  O4  U   B  27     -11.888   0.357  22.986  0.00  0.00    +0.000 OA
ATOM   1059  C5  U   B  27     -12.248  -1.802  23.910  0.00  0.00    +0.000 A 
ATOM   1060  C6  U   B  27     -13.167  -2.738  24.179  0.00  0.00    +0.000 A 
ATOM   1061  H   U   B  27     -14.285   0.355  22.575  0.00  0.00    +0.000 HD
ENDBRANCH 1961053
BRANCH 1861062
ATOM   1062  N1  U   B  26     -12.154  -1.618  27.824  0.00  0.00    +0.000 N 
ATOM   1063  C2  U   B  26     -13.228  -0.918  27.295  0.00  0.00    +0.000 A 
ATOM   1064  O2  U   B  26     -14.380  -1.300  27.392  0.00  0.00    +0.000 OA
ATOM   1065  N3  U   B  26     -12.899   0.250  26.647  0.00  0.00    +0.000 N 
ATOM   1066  C4  U   B  26     -11.638   0.776  26.474  0.00  0.00    +0.000 A 
ATOM   1067  O4  U   B  26     -11.502   1.839  25.864  0.00  0.00    +0.000 OA
ATOM   1068  C5  U   B  26     -10.584  -0.006  27.047  0.00  0.00    +0.000 A 
ATOM   1069  C6  U   B  26     -10.870  -1.148  27.687  0.00  0.00    +0.000 A 
ATOM   1070  H   U   B  26     -13.646   0.766  26.266  0.00  0.00    +0.000 HD
ENDBRANCH 1861062
BRANCH 5161071
ATOM   1071  N9  A   B  59     -11.131   5.968  38.615  0.00  0.00    +0.000 N 
ATOM   1072  C8  A   B  59     -12.494   6.004  38.473  0.00  0.00    +0.000 A 
ATOM   1073  N7  A   B  59     -12.900   6.742  37.466  0.00  0.00    +0.000 NA
ATOM   1074  C5  A   B  59     -11.723   7.225  36.908  0.00  0.00    +0.000 A 
ATOM   1075  C6  A   B  59     -11.466   8.065  35.810  0.00  0.00    +0.000 A 
ATOM   1076  N1  A   B  59     -10.179   8.349  35.525  0.00  0.00    +0.000 NA
ATOM   1077  C2  A   B  59      -9.219   7.821  36.294  0.00  0.00    +0.000 A 
ATOM   1078  N3  A   B  59      -9.336   7.019  37.349  0.00  0.00    +0.000 NA
ATOM   1079  C4  A   B  59     -10.631   6.756  37.606  0.00  0.00    +0.000 A 
BRANCH10751080
ATOM   1080  N6  A   B  59     -12.428   8.598  35.043  0.00  0.00    +0.000 N 
ATOM   1081  H   A   B  59     -12.188   9.180  34.286  0.00  0.00    +0.000 HD
ATOM   1082  H   A   B  59     -13.374   8.407  35.237  0.00  0.00    +0.000 HD
ENDBRANCH10751080
ENDBRANCH 5161071
BRANCH 1761083
ATOM   1083  N1  U   B  25      -9.526   1.138  30.675  0.00  0.00    +0.000 N 
ATOM   1084  C2  U   B  25     -10.892   1.219  30.455  0.00  0.00    +0.000 A 
ATOM   1085  O2  U   B  25     -11.689   0.445  30.951  0.00  0.00    +0.000 OA
ATOM   1086  N3  U   B  25     -11.291   2.244  29.631  0.00  0.00    +0.000 N 
ATOM   1087  C4  U   B  25     -10.482   3.175  29.014  0.00  0.00    +0.000 A 
ATOM   1088  O4  U   B  25     -10.988   4.039  28.296  0.00  0.00    +0.000 OA
ATOM   1089  C5  U   B  25      -9.087   3.024  29.289  0.00  0.00    +0.000 A 
ATOM   1090  C6  U   B  25      -8.666   2.035  30.090  0.00  0.00    +0.000 A 
ATOM   1091  H   U   B  25     -12.258   2.322  29.463  0.00  0.00    +0.000 HD
ENDBRANCH 1761083
BRANCH 1661092
ATOM   1092  N1  U   B  24      -7.519   5.254  32.193  0.00  0.00    +0.000 N 
ATOM   1093  C2  U   B  24      -8.755   4.771  32.594  0.00  0.00    +0.000 A 
ATOM   1094  O2  U   B  24      -8.887   3.949  33.482  0.00  0.00    +0.000 OA
ATOM   1095  N3  U   B  24      -9.832   5.287  31.913  0.00  0.00    +0.000 N 
ATOM   1096  C4  U   B  24      -9.801   6.216  30.893  0.00  0.00    +0.000 A 
ATOM   1097  O4  U   B  24     -10.856   6.582  30.376  0.00  0.00    +0.000 OA
ATOM   1098  C5  U   B  24      -8.490   6.663  30.538  0.00  0.00    +0.000 A 
ATOM   1099  C6  U   B  24      -7.420   6.177  31.184  0.00  0.00    +0.000 A 
ATOM   1100  H   U   B  24     -10.720   4.959  32.182  0.00  0.00    +0.000 HD
ENDBRANCH 1661092
BRANCH 4651101
ATOM   1101  O2' A   B  54     -20.191   5.100  19.662  0.00  0.00    +0.000 OA
ATOM   1102  H   A   B  54     -20.348   5.478  18.782  0.00  0.00    +0.000 HD
ENDBRANCH 4651101
BRANCH 4051103
ATOM   1103  O2' A   B  48       2.168  -7.879  16.334  0.00  0.00    +0.000 OA
ATOM   1104  H   A   B  48       2.431  -8.797  16.507  0.00  0.00    +0.000 HD
ENDBRANCH 4051103
BRANCH 4571105
ATOM   1105  OP2 A   B  54     -14.626  10.023  19.685  0.00  0.00    +0.000 OA
ATOM   1106  H   A   B  54     -14.012  10.748  19.492  0.00  0.00    +0.000 HD
ENDBRANCH 4571105
BRANCH 3971107
ATOM   1107  OP1 A   B  48      -3.371 -11.585  19.248  0.00  0.00    +0.000 OA
ATOM   1108  H   A   B  48      -4.133 -12.129  19.501  0.00  0.00    +0.000 HD
ENDBRANCH 3971107
BRANCH 5051109
ATOM   1109  O2' C   B  58     -12.625   1.421  39.745  0.00  0.00    +0.000 OA
ATOM   1110  H   C   B  58     -13.067   0.560  39.681  0.00  0.00    +0.000 HD
ENDBRANCH 5051109
BRANCH 3951111
ATOM   1111  O2' U   B  47      -1.113 -12.943  15.187  0.00  0.00    +0.000 OA
ATOM   1112  H   U   B  47      -1.301 -13.894  15.215  0.00  0.00    +0.000 HD
ENDBRANCH 3951111
BRANCH 4671113
ATOM   1113  OP2 A   B  55     -18.861   8.611  22.681  0.00  0.00    +0.000 OA
ATOM   1114  H   A   B  55     -18.706   9.469  22.255  0.00  0.00    +0.000 HD
ENDBRANCH 4671113
BRANCH 3871115
ATOM   1115  OP1 U   B  47      -8.218 -14.099  16.159  0.00  0.00    +0.000 OA
ATOM   1116  H   U   B  47      -9.170 -14.283  16.157  0.00  0.00    +0.000 HD
ENDBRANCH 3871115
BRANCH 3571117
ATOM   1117  OP1 C   B  44     -12.168  -5.987   2.627  0.00  0.00    +0.000 OA
ATOM   1118  H   C   B  44     -11.860  -5.111   2.347  0.00  0.00    +0.000 HD
ENDBRANCH 3571117
BRANCH 4751119
ATOM   1119  O2' A   B  55     -21.494   1.970  24.758  0.00  0.00    +0.000 OA
ATOM   1120  H   A   B  55     -22.010   2.072  23.943  0.00  0.00    +0.000 HD
ENDBRANCH 4751119
BRANCH 4351121
ATOM   1121  O2' U   B  51      -4.373   7.390  13.615  0.00  0.00    +0.000 OA
ATOM   1122  H   U   B  51      -3.441   7.482  13.362  0.00  0.00    +0.000 HD
ENDBRANCH 4351121
BRANCH 4551123
ATOM   1123  O2' A   B  53     -16.185   7.663  15.797  0.00  0.00    +0.000 OA
ATOM   1124  H   A   B  53     -15.905   8.138  14.999  0.00  0.00    +0.000 HD
ENDBRANCH 4551123
BRANCH 4071125
ATOM   1125  OP1 U   B  49       0.387  -6.770  20.717  0.00  0.00    +0.000 OA
ATOM   1126  H   U   B  49       1.356  -6.756  20.684  0.00  0.00    +0.000 HD
ENDBRANCH 4071125
BRANCH 4151127
ATOM   1127  O2' U   B  49       2.912  -1.820  15.977  0.00  0.00    +0.000 OA
ATOM   1128  H   U   B  49       3.575  -2.506  16.155  0.00  0.00    +0.000 HD
ENDBRANCH 4151127
BRANCH 4471129
ATOM   1129  OP2 A   B  53      -9.553   9.843  18.342  0.00  0.00    +0.000 OA
ATOM   1130  H   A   B  53      -9.465   8.895  18.158  0.00  0.00    +0.000 HD
ENDBRANCH 4471129
BRANCH 4171131
ATOM   1131  OP1 U   B  50       1.824  -0.482  20.510  0.00  0.00    +0.000 OA
ATOM   1132  H   U   B  50       2.625  -0.072  20.148  0.00  0.00    +0.000 HD
ENDBRANCH 4171131
BRANCH 4251133
ATOM   1133  O2' U   B  50       0.436   3.710  14.710  0.00  0.00    +0.000 OA
ATOM   1134  H   U   B  50       1.363   3.424  14.724  0.00  0.00    +0.000 HD
ENDBRANCH 4251133
BRANCH 4451135
ATOM   1135  O2' U   B  52     -10.385   8.680  13.724  0.00  0.00    +0.000 OA
ATOM   1136  H   U   B  52      -9.679   9.051  13.172  0.00  0.00    +0.000 HD
ENDBRANCH 4451135
BRANCH 4271137
ATOM   1137  OP2 U   B  51      -1.412   3.423  19.183  0.00  0.00    +0.000 OA
ATOM   1138  H   U   B  51      -1.787   2.776  18.565  0.00  0.00    +0.000 HD
ENDBRANCH 4271137
BRANCH 4371139
ATOM   1139  OP2 U   B  52      -4.740   7.542  18.433  0.00  0.00    +0.000 OA
ATOM   1140  H   U   B  52      -4.963   6.679  18.051  0.00  0.00    +0.000 HD
ENDBRANCH 4371139
BRANCH 4771141
ATOM   1141  OP1 A   B  56     -23.539   5.431  27.463  0.00  0.00    +0.000 OA
ATOM   1142  H   A   B  56     -23.938   6.150  26.948  0.00  0.00    +0.000 HD
ENDBRANCH 4771141
BRANCH 4851143
ATOM   1143  O2' A   B  56     -19.925  -0.246  30.259  0.00  0.00    +0.000 OA
ATOM   1144  H   A   B  56     -20.615  -0.533  29.640  0.00  0.00    +0.000 HD
ENDBRANCH 4851143
BRANCH 4871145
ATOM   1145  OP1 A   B  57     -22.527   2.539  33.208  0.00  0.00    +0.000 OA
ATOM   1146  H   A   B  57     -23.318   2.939  32.813  0.00  0.00    +0.000 HD
ENDBRANCH 4871145
BRANCH 4951147
ATOM   1147  O2' A   B  57     -16.392  -0.419  35.484  0.00  0.00    +0.000 OA
ATOM   1148  H   A   B  57     -16.972  -1.106  35.118  0.00  0.00    +0.000 HD
ENDBRANCH 4951147
BRANCH 4971149
ATOM   1149  OP1 C   B  58     -19.762   1.905  38.297  0.00  0.00    +0.000 OA
ATOM   1150  H   C   B  58     -20.654   1.889  37.916  0.00  0.00    +0.000 HD
ENDBRANCH 4971149
BRANCH 5071151
ATOM   1151  OP1 A   B  59     -15.467   3.716  42.946  0.00  0.00    +0.000 OA
ATOM   1152  H   A   B  59     -16.366   3.360  43.020  0.00  0.00    +0.000 HD
ENDBRANCH 5071151
BRANCH 5151153
ATOM   1153  O2' A   B  59      -8.671   5.747  41.274  0.00  0.00    +0.000 OA
ATOM   1154  H   A   B  59      -8.713   4.808  41.513  0.00  0.00    +0.000 HD
ENDBRANCH 5151153
BRANCH 5171155
ATOM   1155  OP1 G   B  60     -10.892   7.625  45.150  0.00  0.00    +0.000 OA
ATOM   1156  H   G   B  60      -9.952   7.426  45.281  0.00  0.00    +0.000 HD
ENDBRANCH 5171155
BRANCH 5251157
ATOM   1157  O2' G   B  60      -6.609  11.775  40.991  0.00  0.00    +0.000 OA
ATOM   1158  H   G   B  60      -6.119  10.994  41.292  0.00  0.00    +0.000 HD
ENDBRANCH 5251157
BRANCH 5271159
ATOM   1159  OP2 A   B  61      -8.026  13.792  44.648  0.00  0.00    +0.000 OA
ATOM   1160  H   A   B  61      -7.766  14.325  43.880  0.00  0.00    +0.000 HD
ENDBRANCH 5271159
BRANCH 5351161
ATOM   1161  O2' A   B  61     -10.941   8.778  49.251  0.00  0.00    +0.000 OA
ATOM   1162  H   A   B  61     -11.659   8.788  48.599  0.00  0.00    +0.000 HD
ENDBRANCH 5351161
BRANCH 5371163
ATOM   1163  OP1 C   B  62     -11.007  13.349  50.603  0.00  0.00    +0.000 OA
ATOM   1164  H   C   B  62     -11.304  13.978  49.927  0.00  0.00    +0.000 HD
ENDBRANCH 5371163
BRANCH 5441165
ATOM   1165  O2' C   B  62      -8.590   8.041  54.901  0.00  0.00    +0.000 OA
ATOM   1166  H   C   B  62      -9.480   7.827  54.580  0.00  0.00    +0.000 HD
ENDBRANCH 5441165
BRANCH  671167
ATOM   1167  OP1 U   B  15     -24.849  29.558  41.045  0.00  0.00    +0.000 OA
ATOM   1168  H   U   B  15     -25.123  30.061  40.262  0.00  0.00    +0.000 HD
ENDBRANCH  671167
BRANCH   51169
ATOM   1169  O2' A   B   9      -5.000  14.915  45.169  0.00  0.00    +0.000 OA
ATOM   1170  H   A   B   9      -5.438  14.465  44.430  0.00  0.00    +0.000 HD
ENDBRANCH   51169
BRANCH  171171
ATOM   1171  OP1 U   B  10      -4.998  17.644  42.548  0.00  0.00    +0.000 OA
ATOM   1172  H   U   B  10      -5.690  18.260  42.261  0.00  0.00    +0.000 HD
ENDBRANCH  171171
BRANCH  251173
ATOM   1173  O2' U   B  10      -4.959  18.786  36.032  0.00  0.00    +0.000 OA
ATOM   1174  H   U   B  10      -4.082  18.392  36.157  0.00  0.00    +0.000 HD
ENDBRANCH  251173
BRANCH 3851175
ATOM   1175  O2' U   B  46      -5.785 -16.060  12.465  0.00  0.00    +0.000 OA
ATOM   1176  H   U   B  46      -6.362 -16.818  12.283  0.00  0.00    +0.000 HD
ENDBRANCH 3851175
BRANCH  351177
ATOM   1177  O2' U   B  11      -8.462  23.146  33.479  0.00  0.00    +0.000 OA
ATOM   1178  H   U   B  11      -7.520  22.979  33.318  0.00  0.00    +0.000 HD
ENDBRANCH  351177
BRANCH  371179
ATOM   1179  OP2 U   B  12      -9.104  24.473  38.074  0.00  0.00    +0.000 OA
ATOM   1180  H   U   B  12      -9.501  23.616  37.852  0.00  0.00    +0.000 HD
ENDBRANCH  371179
BRANCH  451181
ATOM   1181  O2' U   B  12     -13.973  25.820  32.611  0.00  0.00    +0.000 OA
ATOM   1182  H   U   B  12     -13.162  25.910  32.086  0.00  0.00    +0.000 HD
ENDBRANCH  451181
BRANCH  471183
ATOM   1183  OP2 C   B  13     -13.136  27.668  37.032  0.00  0.00    +0.000 OA
ATOM   1184  H   C   B  13     -12.218  27.948  37.171  0.00  0.00    +0.000 HD
ENDBRANCH  471183
BRANCH  551185
ATOM   1185  O2' C   B  13     -20.005  26.513  34.368  0.00  0.00    +0.000 OA
ATOM   1186  H   C   B  13     -19.569  26.742  33.532  0.00  0.00    +0.000 HD
ENDBRANCH  551185
BRANCH  571187
ATOM   1187  OP2 A   B  14     -17.936  29.456  37.765  0.00  0.00    +0.000 OA
ATOM   1188  H   A   B  14     -17.302  30.072  37.366  0.00  0.00    +0.000 HD
ENDBRANCH  571187
BRANCH  651189
ATOM   1189  O2' A   B  14     -23.816  25.215  39.473  0.00  0.00    +0.000 OA
ATOM   1190  H   A   B  14     -24.009  25.320  38.528  0.00  0.00    +0.000 HD
ENDBRANCH  651189
BRANCH  751191
ATOM   1191  O2' U   B  15     -24.401  26.614  46.176  0.00  0.00    +0.000 OA
ATOM   1192  H   U   B  15     -23.816  26.515  46.943  0.00  0.00    +0.000 HD
ENDBRANCH  751191
BRANCH  771193
ATOM   1193  OP1 C   B  16     -19.930  24.669  46.626  0.00  0.00    +0.000 OA
ATOM   1194  H   C   B  16     -19.208  25.268  46.378  0.00  0.00    +0.000 HD
ENDBRANCH  771193
BRANCH  851195
ATOM   1195  O2' C   B  16     -25.878  20.697  47.868  0.00  0.00    +0.000 OA
ATOM   1196  H   C   B  16     -25.655  21.254  48.630  0.00  0.00    +0.000 HD
ENDBRANCH  851195
BRANCH  871197
ATOM   1197  OP1 C   B  17     -21.783  18.291  47.447  0.00  0.00    +0.000 OA
ATOM   1198  H   C   B  17     -21.334  17.602  46.933  0.00  0.00    +0.000 HD
ENDBRANCH  871197
BRANCH  951199
ATOM   1199  O2' C   B  17     -27.314  15.579  43.770  0.00  0.00    +0.000 OA
ATOM   1200  H   C   B  17     -27.583  15.699  44.694  0.00  0.00    +0.000 HD
ENDBRANCH  951199
BRANCH  971201
ATOM   1201  OP1 G   B  18     -23.414  12.964  44.267  0.00  0.00    +0.000 OA
ATOM   1202  H   G   B  18     -22.759  12.508  43.716  0.00  0.00    +0.000 HD
ENDBRANCH  971201
BRANCH 1051203
ATOM   1203  O2' G   B  18     -25.106  17.097  38.003  0.00  0.00    +0.000 OA
ATOM   1204  H   G   B  18     -25.736  16.772  38.665  0.00  0.00    +0.000 HD
ENDBRANCH 1051203
BRANCH 1071205
ATOM   1205  OP2 A   B  19     -21.726  13.516  37.590  0.00  0.00    +0.000 OA
ATOM   1206  H   A   B  19     -21.116  13.077  36.977  0.00  0.00    +0.000 HD
ENDBRANCH 1071205
BRANCH 1151207
ATOM   1207  O2' A   B  19     -22.228  18.461  32.110  0.00  0.00    +0.000 OA
ATOM   1208  H   A   B  19     -23.164  18.497  32.362  0.00  0.00    +0.000 HD
ENDBRANCH 1151207
BRANCH 1171209
ATOM   1209  OP2 A   B  20     -20.763  13.814  32.655  0.00  0.00    +0.000 OA
ATOM   1210  H   A   B  20     -20.160  13.144  32.296  0.00  0.00    +0.000 HD
ENDBRANCH 1171209
BRANCH 1251211
ATOM   1211  O2' A   B  20     -17.193  18.855  28.528  0.00  0.00    +0.000 OA
ATOM   1212  H   A   B  20     -18.100  19.156  28.365  0.00  0.00    +0.000 HD
ENDBRANCH 1251211
BRANCH 1271213
ATOM   1213  OP2 A   B  21     -17.273  13.927  28.646  0.00  0.00    +0.000 OA
ATOM   1214  H   A   B  21     -16.721  13.151  28.464  0.00  0.00    +0.000 HD
ENDBRANCH 1271213
BRANCH  271215
ATOM   1215  OP2 U   B  11      -6.928  20.106  40.104  0.00  0.00    +0.000 OA
ATOM   1216  H   U   B  11      -7.383  19.400  39.619  0.00  0.00    +0.000 HD
ENDBRANCH  271215
BRANCH 3071217
ATOM   1217  OP2 U   B  39      -6.062 -23.317  -1.916  0.00  0.00    +0.000 OA
ATOM   1218  H   U   B  39      -5.439 -23.924  -2.346  0.00  0.00    +0.000 HD
ENDBRANCH 3071217
BRANCH 2351219
ATOM   1219  O2' A   B  31      -6.910   3.665   6.655  0.00  0.00    +0.000 OA
ATOM   1220  H   A   B  31      -7.708   4.189   6.486  0.00  0.00    +0.000 HD
ENDBRANCH 2351219
BRANCH 2371221
ATOM   1221  OP2 A   B  32      -7.298  -0.608   4.385  0.00  0.00    +0.000 OA
ATOM   1222  H   A   B  32      -6.754  -1.280   3.945  0.00  0.00    +0.000 HD
ENDBRANCH 2371221
BRANCH 2451223
ATOM   1223  O2' A   B  32      -0.829   2.337   6.506  0.00  0.00    +0.000 OA
ATOM   1224  H   A   B  32      -1.265   3.176   6.290  0.00  0.00    +0.000 HD
ENDBRANCH 2451223
BRANCH 2471225
ATOM   1225  OP2 U   B  33      -2.374  -0.943   3.174  0.00  0.00    +0.000 OA
ATOM   1226  H   U   B  33      -3.069  -0.588   2.598  0.00  0.00    +0.000 HD
ENDBRANCH 2471225
BRANCH 2551227
ATOM   1227  O2' U   B  33       3.671  -2.040   7.338  0.00  0.00    +0.000 OA
ATOM   1228  H   U   B  33       3.767  -1.080   7.242  0.00  0.00    +0.000 HD
ENDBRANCH 2551227
BRANCH 2571229
ATOM   1229  OP2 A   B  34       1.873  -3.716   3.065  0.00  0.00    +0.000 OA
ATOM   1230  H   A   B  34       1.644  -2.995   2.458  0.00  0.00    +0.000 HD
ENDBRANCH 2571229
BRANCH 2651231
ATOM   1231  O2' A   B  34       5.185  -8.133   8.076  0.00  0.00    +0.000 OA
ATOM   1232  H   A   B  34       5.758  -7.357   8.179  0.00  0.00    +0.000 HD
ENDBRANCH 2651231
BRANCH 2671233
ATOM   1233  OP1 A   B  35       6.364  -9.463   3.538  0.00  0.00    +0.000 OA
ATOM   1234  H   A   B  35       6.174 -10.108   2.839  0.00  0.00    +0.000 HD
ENDBRANCH 2671233
BRANCH 2751235
ATOM   1235  O2' A   B  35       3.238 -13.786   8.549  0.00  0.00    +0.000 OA
ATOM   1236  H   A   B  35       4.063 -13.348   8.809  0.00  0.00    +0.000 HD
ENDBRANCH 2751235
BRANCH 2771237
ATOM   1237  OP1 U   B  36       4.566 -16.254   4.703  0.00  0.00    +0.000 OA
ATOM   1238  H   U   B  36       4.258 -16.837   3.992  0.00  0.00    +0.000 HD
ENDBRANCH 2771237
BRANCH 2851239
ATOM   1239  O2' U   B  36      -2.094 -17.568   7.156  0.00  0.00    +0.000 OA
ATOM   1240  H   U   B  36      -1.470 -17.557   7.899  0.00  0.00    +0.000 HD
ENDBRANCH 2851239
BRANCH 2871241
ATOM   1241  OP1 A   B  37       0.196 -20.675   4.208  0.00  0.00    +0.000 OA
ATOM   1242  H   A   B  37       0.056 -21.122   3.359  0.00  0.00    +0.000 HD
ENDBRANCH 2871241
BRANCH 2951243
ATOM   1243  O2' A   B  37      -6.973 -20.089   3.882  0.00  0.00    +0.000 OA
ATOM   1244  H   A   B  37      -6.713 -20.335   4.783  0.00  0.00    +0.000 HD
ENDBRANCH 2951243
BRANCH 2971245
ATOM   1245  OP1 U   B  38      -4.520 -23.489   1.485  0.00  0.00    +0.000 OA
ATOM   1246  H   U   B  38      -4.348 -23.826   0.592  0.00  0.00    +0.000 HD
ENDBRANCH 2971245
BRANCH 3051247
ATOM   1247  O2' U   B  38     -10.065 -20.219  -1.854  0.00  0.00    +0.000 OA
ATOM   1248  H   U   B  38     -10.384 -20.541  -0.997  0.00  0.00    +0.000 HD
ENDBRANCH 3051247
BRANCH 1351249
ATOM   1249  O2' A   B  21     -11.091  18.047  28.073  0.00  0.00    +0.000 OA
ATOM   1250  H   A   B  21     -11.712  18.645  27.628  0.00  0.00    +0.000 HD
ENDBRANCH 1351249
BRANCH 3151251
ATOM   1251  O2' U   B  39      -7.110 -21.253  -8.881  0.00  0.00    +0.000 OA
ATOM   1252  H   U   B  39      -6.632 -22.097  -8.902  0.00  0.00    +0.000 HD
ENDBRANCH 3151251
BRANCH 3171253
ATOM   1253  OP1 C   B  40      -4.308 -18.986  -5.388  0.00  0.00    +0.000 OA
ATOM   1254  H   C   B  40      -3.579 -19.276  -5.958  0.00  0.00    +0.000 HD
ENDBRANCH 3171253
BRANCH 3251255
ATOM   1255  O2' C   B  40      -4.485 -15.413 -11.558  0.00  0.00    +0.000 OA
ATOM   1256  H   C   B  40      -3.929 -16.196 -11.694  0.00  0.00    +0.000 HD
ENDBRANCH 3251255
BRANCH 3271257
ATOM   1257  OP2 U   B  41      -4.487 -15.072  -6.609  0.00  0.00    +0.000 OA
ATOM   1258  H   U   B  41      -5.364 -15.323  -6.938  0.00  0.00    +0.000 HD
ENDBRANCH 3271257
BRANCH 3351259
ATOM   1259  O2' U   B  41      -6.797  -8.950  -9.979  0.00  0.00    +0.000 OA
ATOM   1260  H   U   B  41      -6.099  -9.130 -10.628  0.00  0.00    +0.000 HD
ENDBRANCH 3351259
BRANCH 3371261
ATOM   1261  OP2 U   B  42      -5.073 -10.635  -5.682  0.00  0.00    +0.000 OA
ATOM   1262  H   U   B  42      -5.810 -11.169  -6.018  0.00  0.00    +0.000 HD
ENDBRANCH 3371261
BRANCH 3451263
ATOM   1263  O2' U   B  42     -10.978  -6.153  -6.197  0.00  0.00    +0.000 OA
ATOM   1264  H   U   B  42     -10.473  -5.765  -6.928  0.00  0.00    +0.000 HD
ENDBRANCH 3451263
BRANCH 3471265
ATOM   1265  OP1 A   B  43      -8.223  -4.771  -2.511  0.00  0.00    +0.000 OA
ATOM   1266  H   A   B  43      -7.402  -4.386  -2.855  0.00  0.00    +0.000 HD
ENDBRANCH 3471265
BRANCH 3551267
ATOM   1267  O2' A   B  43     -14.431  -8.260  -0.958  0.00  0.00    +0.000 OA
ATOM   1268  H   A   B  43     -14.579  -7.521  -1.568  0.00  0.00    +0.000 HD
ENDBRANCH 3551267
BRANCH 3651269
ATOM   1269  O2' C   B  44     -14.487 -12.897   3.409  0.00  0.00    +0.000 OA
ATOM   1270  H   C   B  44     -15.181 -12.344   3.017  0.00  0.00    +0.000 HD
ENDBRANCH 3651269
BRANCH 3671271
ATOM   1271  OP1 U   B  45     -13.692 -10.466   7.395  0.00  0.00    +0.000 OA
ATOM   1272  H   U   B  45     -14.104  -9.589   7.355  0.00  0.00    +0.000 HD
ENDBRANCH 3671271
BRANCH 3751273
ATOM   1273  O2' U   B  45     -10.549 -16.634   8.126  0.00  0.00    +0.000 OA
ATOM   1274  H   U   B  45     -11.363 -16.843   7.641  0.00  0.00    +0.000 HD
ENDBRANCH 3751273
BRANCH 3771275
ATOM   1275  OP1 U   B  46     -12.690 -13.861  11.512  0.00  0.00    +0.000 OA
ATOM   1276  H   U   B  46     -13.566 -13.586  11.198  0.00  0.00    +0.000 HD
ENDBRANCH 3771275
BRANCH 2151277
ATOM   1277  O2' A   B  29     -16.900   0.103  12.064  0.00  0.00    +0.000 OA
ATOM   1278  H   A   B  29     -17.789  -0.100  12.395  0.00  0.00    +0.000 HD
ENDBRANCH 2151277
BRANCH 1471279
ATOM   1279  OP2 U   B  23      -7.676  11.438  26.910  0.00  0.00    +0.000 OA
ATOM   1280  H   U   B  23      -8.023  11.871  26.114  0.00  0.00    +0.000 HD
ENDBRANCH 1471279
BRANCH 2051281
ATOM   1281  O2' U   B  28     -18.476  -2.812  17.340  0.00  0.00    +0.000 OA
ATOM   1282  H   U   B  28     -19.061  -3.244  17.982  0.00  0.00    +0.000 HD
ENDBRANCH 2051281
BRANCH 1671283
ATOM   1283  OP1 U   B  25      -3.134   0.810  29.500  0.00  0.00    +0.000 OA
ATOM   1284  H   U   B  25      -3.280   0.250  28.722  0.00  0.00    +0.000 HD
ENDBRANCH 1671283
BRANCH 1851285
ATOM   1285  O2' U   B  26     -13.625  -4.939  28.159  0.00  0.00    +0.000 OA
ATOM   1286  H   U   B  26     -13.304  -5.212  29.033  0.00  0.00    +0.000 HD
ENDBRANCH 1851285
BRANCH 1771287
ATOM   1287  OP1 U   B  26      -6.358  -4.473  28.491  0.00  0.00    +0.000 OA
ATOM   1288  H   U   B  26      -6.373  -4.829  27.589  0.00  0.00    +0.000 HD
ENDBRANCH 1771287
BRANCH 1651289
ATOM   1289  O2' U   B  24      -5.341   2.610  33.442  0.00  0.00    +0.000 OA
ATOM   1290  H   U   B  24      -4.609   3.120  33.823  0.00  0.00    +0.000 HD
ENDBRANCH 1651289
BRANCH 1551291
ATOM   1291  O2' U   B  23      -3.573   9.050  32.590  0.00  0.00    +0.000 OA
ATOM   1292  H   U   B  23      -3.112   9.895  32.472  0.00  0.00    +0.000 HD
ENDBRANCH 1551291
BRANCH 1571293
ATOM   1293  OP1 U   B  24      -2.420   6.857  28.408  0.00  0.00    +0.000 OA
ATOM   1294  H   U   B  24      -2.082   7.496  27.761  0.00  0.00    +0.000 HD
ENDBRANCH 1571293
BRANCH 2271295
ATOM   1295  OP2 A   B  31     -11.794  -1.935   6.968  0.00  0.00    +0.000 OA
ATOM   1296  H   A   B  31     -11.135  -2.450   6.478  0.00  0.00    +0.000 HD
ENDBRANCH 2271295
BRANCH 2071297
ATOM   1297  OP2 A   B  29     -15.054  -5.957  15.957  0.00  0.00    +0.000 OA
ATOM   1298  H   A   B  29     -14.496  -6.184  15.197  0.00  0.00    +0.000 HD
ENDBRANCH 2071297
BRANCH 1451299
ATOM   1299  O2' C   B  22      -5.985  14.683  30.204  0.00  0.00    +0.000 OA
ATOM   1300  H   C   B  22      -6.045  15.557  29.788  0.00  0.00    +0.000 HD
ENDBRANCH 1451299
BRANCH 1871301
ATOM   1301  OP1 U   B  27     -10.954  -7.833  25.333  0.00  0.00    +0.000 OA
ATOM   1302  H   U   B  27     -10.824  -8.058  24.399  0.00  0.00    +0.000 HD
ENDBRANCH 1871301
BRANCH 1751303
ATOM   1303  O2' U   B  25      -9.246  -2.327  31.780  0.00  0.00    +0.000 OA
ATOM   1304  H   U   B  25      -8.621  -2.250  32.518  0.00  0.00    +0.000 HD
ENDBRANCH 1751303
BRANCH 2171305
ATOM   1305  OP2 A   B  30     -14.614  -4.059  11.073  0.00  0.00    +0.000 OA
ATOM   1306  H   A   B  30     -13.954  -4.437  10.470  0.00  0.00    +0.000 HD
ENDBRANCH 2171305
BRANCH 2251307
ATOM   1307  O2' A   B  30     -12.707   2.610   8.381  0.00  0.00    +0.000 OA
ATOM   1308  H   A   B  30     -13.667   2.748   8.409  0.00  0.00    +0.000 HD
ENDBRANCH 2251307
BRANCH 1971309
ATOM   1309  OP2 U   B  28     -13.267  -6.749  20.915  0.00  0.00    +0.000 OA
ATOM   1310  H   U   B  28     -12.890  -6.929  20.040  0.00  0.00    +0.000 HD
ENDBRANCH 1971309
BRANCH 1371311
ATOM   1311  OP2 C   B  22     -12.307  13.470  26.545  0.00  0.00    +0.000 OA
ATOM   1312  H   C   B  22     -13.061  13.483  25.935  0.00  0.00    +0.000 HD
ENDBRANCH 1371311
BRANCH 1951313
ATOM   1313  O2' U   B  27     -17.213  -4.881  23.067  0.00  0.00    +0.000 OA
ATOM   1314  H   U   B  27     -17.344  -5.340  23.911  0.00  0.00    +0.000 HD
ENDBRANCH 1951313
BRANCH 5431315
ATOM   1315  O3' C   B  62      -9.277  10.749  54.844  0.00  0.00    +0.000 OA
BRANCH13151316
ATOM   1316  P   U   B  63      -8.548  11.971  55.483  0.00  0.00    +0.000 P 
ATOM   1317  OP2 U   B  63      -8.066  12.854  54.389  0.00  0.00    +0.000 OA
BRANCH13161318
ATOM   1318  OP1 U   B  63      -9.430  12.516  56.538  0.00  0.00    +0.000 OA
ATOM   1319  H   U   B  63     -10.209  12.925  56.129  0.00  0.00    +0.000 HD
ENDBRANCH13161318
BRANCH13161320
ATOM   1320  O5' U   B  63      -7.279  11.307  56.177  0.00  0.00    +0.000 OA
BRANCH13201321
ATOM   1321  C5' U   B  63      -7.433  10.344  57.209  0.00  0.00    +0.000 C 
BRANCH13211322
ATOM   1322  C4' U   B  63      -6.119   9.687  57.549  0.00  0.00    +0.000 C 
ATOM   1323  O4' U   B  63      -5.642   8.908  56.422  0.00  0.00    +0.000 OA
ATOM   1324  C3' U   B  63      -4.972  10.622  57.842  0.00  0.00    +0.000 C 
ATOM   1325  C2' U   B  63      -3.768   9.710  57.624  0.00  0.00    +0.000 C 
ATOM   1326  C1' U   B  63      -4.227   8.911  56.405  0.00  0.00    +0.000 C 
BRANCH13261327
ATOM   1327  N1  U   B  63      -3.755   9.516  55.140  0.00  0.00    +0.000 N 
ATOM   1328  C2  U   B  63      -2.466   9.208  54.735  0.00  0.00    +0.000 A 
ATOM   1329  O2  U   B  63      -1.733   8.471  55.369  0.00  0.00    +0.000 OA
ATOM   1330  N3  U   B  63      -2.067   9.800  53.558  0.00  0.00    +0.000 N 
ATOM   1331  C4  U   B  63      -2.809  10.647  52.761  0.00  0.00    +0.000 A 
ATOM   1332  O4  U   B  63      -2.310  11.102  51.730  0.00  0.00    +0.000 OA
ATOM   1333  C5  U   B  63      -4.126  10.913  53.248  0.00  0.00    +0.000 A 
ATOM   1334  C6  U   B  63      -4.546  10.353  54.394  0.00  0.00    +0.000 A 
ATOM   1335  H   U   B  63      -1.154   9.597  53.252  0.00  0.00    +0.000 HD
ENDBRANCH13261327
BRANCH13251336
ATOM   1336  O2' U   B  63      -3.573   8.830  58.711  0.00  0.00    +0.000 OA
ATOM   1337  H   U   B  63      -4.382   8.317  58.861  0.00  0.00    +0.000 HD
ENDBRANCH13251336
BRANCH13241338
ATOM   1338  O3' U   B  63      -5.034  11.182  59.146  0.00  0.00    +0.000 OA
BRANCH13381339
ATOM   1339  P   A   B  64      -4.474  12.617  59.387  0.00  0.00    +0.000 P 
ATOM   1340  OP2 A   B  64      -4.786  13.468  58.206  0.00  0.00    +0.000 OA
BRANCH13391341
ATOM   1341  OP1 A   B  64      -4.909  13.041  60.739  0.00  0.00    +0.000 OA
ATOM   1342  H   A   B  64      -5.868  13.188  60.739  0.00  0.00    +0.000 HD
ENDBRANCH13391341
BRANCH13391343
ATOM   1343  O5' A   B  64      -2.901  12.383  59.416  0.00  0.00    +0.000 OA
BRANCH13431344
ATOM   1344  C5' A   B  64      -2.316  11.542  60.398  0.00  0.00    +0.000 C 
BRANCH13441345
ATOM   1345  C4' A   B  64      -0.861  11.280  60.098  0.00  0.00    +0.000 C 
ATOM   1346  O4' A   B  64      -0.734  10.512  58.877  0.00  0.00    +0.000 OA
ATOM   1347  C3' A   B  64      -0.007  12.502  59.832  0.00  0.00    +0.000 C 
ATOM   1348  C2' A   B  64       1.170  11.899  59.080  0.00  0.00    +0.000 C 
ATOM   1349  C1' A   B  64       0.462  10.867  58.210  0.00  0.00    +0.000 C 
BRANCH13491350
ATOM   1350  N9  A   B  64       0.130  11.411  56.884  0.00  0.00    +0.000 N 
ATOM   1351  C8  A   B  64      -1.067  11.908  56.446  0.00  0.00    +0.000 A 
ATOM   1352  N7  A   B  64      -1.041  12.326  55.202  0.00  0.00    +0.000 NA
ATOM   1353  C5  A   B  64       0.268  12.088  54.795  0.00  0.00    +0.000 A 
ATOM   1354  C6  A   B  64       0.941  12.311  53.580  0.00  0.00    +0.000 A 
ATOM   1355  N1  A   B  64       2.239  11.963  53.509  0.00  0.00    +0.000 NA
ATOM   1356  C2  A   B  64       2.814  11.421  54.591  0.00  0.00    +0.000 A 
ATOM   1357  N3  A   B  64       2.289  11.162  55.784  0.00  0.00    +0.000 NA
ATOM   1358  C4  A   B  64       0.995  11.527  55.821  0.00  0.00    +0.000 A 
BRANCH13541359
ATOM   1359  N6  A   B  64       0.364  12.854  52.502  0.00  0.00    +0.000 N 
ATOM   1360  H   A   B  64       0.886  12.986  51.678  0.00  0.00    +0.000 HD
ATOM   1361  H   A   B  64      -0.583  13.122  52.533  0.00  0.00    +0.000 HD
ENDBRANCH13541359
ENDBRANCH13491350
BRANCH13481362
ATOM   1362  O2' A   B  64       2.064  11.238  59.952  0.00  0.00    +0.000 OA
ATOM   1363  H   A   B  64       1.584  10.564  60.457  0.00  0.00    +0.000 HD
ENDBRANCH13481362
BRANCH13471364
ATOM   1364  O3' A   B  64       0.360  13.183  61.022  0.00  0.00    +0.000 OA
BRANCH13641365
ATOM   1365  P   C   B  65       0.557  14.729  60.979  0.00  0.00    +0.000 P 
ATOM   1366  OP2 C   B  65      -0.458  15.342  60.083  0.00  0.00    +0.000 OA
BRANCH13651367
ATOM   1367  OP1 C   B  65       0.668  15.183  62.387  0.00  0.00    +0.000 OA
ATOM   1368  H   C   B  65       0.792  16.145  62.408  0.00  0.00    +0.000 HD
ENDBRANCH13651367
BRANCH13651369
ATOM   1369  O5' C   B  65       1.981  14.890  60.286  0.00  0.00    +0.000 OA
BRANCH13691370
ATOM   1370  C5' C   B  65       3.137  14.301  60.863  0.00  0.00    +0.000 C 
BRANCH13701371
ATOM   1371  C4' C   B  65       4.297  14.303  59.897  0.00  0.00    +0.000 C 
ATOM   1372  O4' C   B  65       3.966  13.532  58.712  0.00  0.00    +0.000 OA
ATOM   1373  C3' C   B  65       4.694  15.650  59.339  0.00  0.00    +0.000 C 
ATOM   1374  C2' C   B  65       5.471  15.249  58.091  0.00  0.00    +0.000 C 
ATOM   1375  C1' C   B  65       4.635  14.073  57.589  0.00  0.00    +0.000 C 
BRANCH13751376
ATOM   1376  N1  C   B  65       3.638  14.493  56.578  0.00  0.00    +0.000 N 
ATOM   1377  C2  C   B  65       4.068  14.659  55.255  0.00  0.00    +0.000 A 
ATOM   1378  O2  C   B  65       5.255  14.443  54.973  0.00  0.00    +0.000 OA
ATOM   1379  N3  C   B  65       3.174  15.051  54.310  0.00  0.00    +0.000 NA
ATOM   1380  C4  C   B  65       1.903  15.272  54.644  0.00  0.00    +0.000 A 
ATOM   1381  N4  C   B  65       1.062  15.658  53.682  0.00  0.00    +0.000 N 
ATOM   1382  C5  C   B  65       1.443  15.111  55.982  0.00  0.00    +0.000 A 
ATOM   1383  C6  C   B  65       2.335  14.723  56.908  0.00  0.00    +0.000 A 
ATOM   1384  H   C   B  65       1.387  15.767  52.759  0.00  0.00    +0.000 HD
ATOM   1385  H   C   B  65       0.117  15.833  53.895  0.00  0.00    +0.000 HD
ENDBRANCH13751376
BRANCH13741386
ATOM   1386  O2' C   B  65       6.766  14.789  58.411  0.00  0.00    +0.000 OA
ATOM   1387  H   C   B  65       6.702  14.054  59.041  0.00  0.00    +0.000 HD
ENDBRANCH13741386
BRANCH13731388
ATOM   1388  O3' C   B  65       5.454  16.423  60.255  0.00  0.00    +0.000 OA
BRANCH13881389
ATOM   1389  P   A   B  66       5.298  17.973  60.261  0.00  0.00    +0.000 P 
ATOM   1390  OP2 A   B  66       3.864  18.332  60.088  0.00  0.00    +0.000 OA
BRANCH13891391
ATOM   1391  OP1 A   B  66       6.054  18.487  61.430  0.00  0.00    +0.000 OA
ATOM   1392  H   A   B  66       5.978  19.453  61.465  0.00  0.00    +0.000 HD
ENDBRANCH13891391
BRANCH13891393
ATOM   1393  O5' A   B  66       6.070  18.397  58.937  0.00  0.00    +0.000 OA
BRANCH13931394
ATOM   1394  C5' A   B  66       7.446  18.085  58.769  0.00  0.00    +0.000 C 
BRANCH13941395
ATOM   1395  C4' A   B  66       7.899  18.372  57.357  0.00  0.00    +0.000 C 
ATOM   1396  O4' A   B  66       7.208  17.508  56.426  0.00  0.00    +0.000 OA
ATOM   1397  C3' A   B  66       7.598  19.763  56.838  0.00  0.00    +0.000 C 
ATOM   1398  C2' A   B  66       7.647  19.556  55.334  0.00  0.00    +0.000 C 
ATOM   1399  C1' A   B  66       7.002  18.185  55.203  0.00  0.00    +0.000 C 
BRANCH13991400
ATOM   1400  N9  A   B  66       5.554  18.276  54.953  0.00  0.00    +0.000 N 
ATOM   1401  C8  A   B  66       4.533  18.090  55.846  0.00  0.00    +0.000 A 
ATOM   1402  N7  A   B  66       3.338  18.241  55.322  0.00  0.00    +0.000 NA
ATOM   1403  C5  A   B  66       3.594  18.548  53.989  0.00  0.00    +0.000 A 
ATOM   1404  C6  A   B  66       2.748  18.822  52.900  0.00  0.00    +0.000 A 
ATOM   1405  N1  A   B  66       3.322  19.091  51.710  0.00  0.00    +0.000 NA
ATOM   1406  C2  A   B  66       4.659  19.076  51.628  0.00  0.00    +0.000 A 
ATOM   1407  N3  A   B  66       5.559  18.832  52.576  0.00  0.00    +0.000 NA
ATOM   1408  C4  A   B  66       4.949  18.572  53.751  0.00  0.00    +0.000 A 
BRANCH14041409
ATOM   1409  N6  A   B  66       1.415  18.838  52.983  0.00  0.00    +0.000 N 
ATOM   1410  H   A   B  66       0.874  19.037  52.185  0.00  0.00    +0.000 HD
ATOM   1411  H   A   B  66       0.973  18.651  53.843  0.00  0.00    +0.000 HD
ENDBRANCH14041409
ENDBRANCH13991400
BRANCH13981412
ATOM   1412  O2' A   B  66       8.980  19.489  54.864  0.00  0.00    +0.000 OA
ATOM   1413  H   A   B  66       9.454  18.787  55.336  0.00  0.00    +0.000 HD
ENDBRANCH13981412
BRANCH13971414
ATOM   1414  O3' A   B  66       8.523  20.728  57.316  0.00  0.00    +0.000 OA
BRANCH14141415
ATOM   1415  P   A   B  67       8.071  22.199  57.456  0.00  0.00    +0.000 P 
ATOM   1416  OP2 A   B  67       6.623  22.265  57.798  0.00  0.00    +0.000 OA
BRANCH14151417
ATOM   1417  OP1 A   B  67       9.064  22.864  58.337  0.00  0.00    +0.000 OA
ATOM   1418  H   A   B  67       9.955  22.729  57.979  0.00  0.00    +0.000 HD
ENDBRANCH14151417
BRANCH14151419
ATOM   1419  O5' A   B  67       8.257  22.753  55.980  0.00  0.00    +0.000 OA
BRANCH14191420
ATOM   1420  C5' A   B  67       9.511  22.655  55.318  0.00  0.00    +0.000 C 
BRANCH14201421
ATOM   1421  C4' A   B  67       9.395  23.092  53.879  0.00  0.00    +0.000 C 
ATOM   1422  O4' A   B  67       8.572  22.158  53.143  0.00  0.00    +0.000 OA
ATOM   1423  C3' A   B  67       8.709  24.422  53.661  0.00  0.00    +0.000 C 
ATOM   1424  C2' A   B  67       8.234  24.310  52.220  0.00  0.00    +0.000 C 
ATOM   1425  C1' A   B  67       7.830  22.843  52.154  0.00  0.00    +0.000 C 
BRANCH14251426
ATOM   1426  N9  A   B  67       6.397  22.634  52.419  0.00  0.00    +0.000 N 
ATOM   1427  C8  A   B  67       5.804  22.271  53.599  0.00  0.00    +0.000 A 
ATOM   1428  N7  A   B  67       4.500  22.157  53.520  0.00  0.00    +0.000 NA
ATOM   1429  C5  A   B  67       4.217  22.467  52.194  0.00  0.00    +0.000 A 
ATOM   1430  C6  A   B  67       3.012  22.526  51.472  0.00  0.00    +0.000 A 
ATOM   1431  N1  A   B  67       3.081  22.867  50.170  0.00  0.00    +0.000 NA
ATOM   1432  C2  A   B  67       4.280  23.124  49.634  0.00  0.00    +0.000 A 
ATOM   1433  N3  A   B  67       5.479  23.102  50.207  0.00  0.00    +0.000 NA
ATOM   1434  C4  A   B  67       5.373  22.762  51.509  0.00  0.00    +0.000 A 
BRANCH14301435
ATOM   1435  N6  A   B  67       1.813  22.269  52.007  0.00  0.00    +0.000 N 
ATOM   1436  H   A   B  67       1.003  22.327  51.450  0.00  0.00    +0.000 HD
ATOM   1437  H   A   B  67       1.741  22.022  52.957  0.00  0.00    +0.000 HD
ENDBRANCH14301435
ENDBRANCH14251426
BRANCH14241438
ATOM   1438  O2' A   B  67       9.291  24.545  51.310  0.00  0.00    +0.000 OA
ATOM   1439  H   A   B  67      10.020  23.932  51.496  0.00  0.00    +0.000 HD
ENDBRANCH14241438
BRANCH14231440
ATOM   1440  O3' A   B  67       9.586  25.519  53.896  0.00  0.00    +0.000 OA
BRANCH14401441
ATOM   1441  P   A   B  68       9.091  26.711  54.753  0.00  0.00    +0.000 P 
ATOM   1442  OP1 A   B  68      10.299  27.421  55.255  0.00  0.00    +0.000 OA
BRANCH14411443
ATOM   1443  OP2 A   B  68       8.047  26.263  55.719  0.00  0.00    +0.000 OA
ATOM   1444  H   A   B  68       7.330  25.820  55.238  0.00  0.00    +0.000 HD
ENDBRANCH14411443
BRANCH14411445
ATOM   1445  O5' A   B  68       8.389  27.622  53.663  0.00  0.00    +0.000 OA
BRANCH14451446
ATOM   1446  C5' A   B  68       9.095  28.038  52.498  0.00  0.00    +0.000 C 
BRANCH14461447
ATOM   1447  C4' A   B  68       8.141  28.418  51.396  0.00  0.00    +0.000 C 
ATOM   1448  O4' A   B  68       7.425  27.245  50.945  0.00  0.00    +0.000 OA
ATOM   1449  C3' A   B  68       7.038  29.379  51.789  0.00  0.00    +0.000 C 
ATOM   1450  C2' A   B  68       5.989  29.112  50.723  0.00  0.00    +0.000 C 
ATOM   1451  C1' A   B  68       6.101  27.598  50.587  0.00  0.00    +0.000 C 
BRANCH14511452
ATOM   1452  N9  A   B  68       5.171  26.900  51.493  0.00  0.00    +0.000 N 
ATOM   1453  C8  A   B  68       5.410  26.461  52.770  0.00  0.00    +0.000 A 
ATOM   1454  N7  A   B  68       4.377  25.876  53.328  0.00  0.00    +0.000 NA
ATOM   1455  C5  A   B  68       3.390  25.937  52.352  0.00  0.00    +0.000 A 
ATOM   1456  C6  A   B  68       2.058  25.488  52.324  0.00  0.00    +0.000 A 
ATOM   1457  N6  A   B  68       1.464  24.871  53.351  0.00  0.00    +0.000 N 
ATOM   1458  N1  A   B  68       1.349  25.707  51.198  0.00  0.00    +0.000 NA
ATOM   1459  C2  A   B  68       1.946  26.331  50.174  0.00  0.00    +0.000 A 
ATOM   1460  N3  A   B  68       3.188  26.796  50.079  0.00  0.00    +0.000 NA
ATOM   1461  C4  A   B  68       3.867  26.565  51.220  0.00  0.00    +0.000 A 
ATOM   1462  H   A   B  68       0.527  24.578  53.274  0.00  0.00    +0.000 HD
ATOM   1463  H   A   B  68       1.963  24.710  54.184  0.00  0.00    +0.000 HD
ENDBRANCH14511452
BRANCH14501464
ATOM   1464  O2' A   B  68       6.334  29.716  49.492  0.00  0.00    +0.000 OA
ATOM   1465  H   A   B  68       7.212  29.409  49.216  0.00  0.00    +0.000 HD
ENDBRANCH14501464
BRANCH14491466
ATOM   1466  O3' A   B  68       7.477  30.732  51.842  0.00  0.00    +0.000 OA
BRANCH14661467
ATOM   1467  P   A   B  69       6.901  31.660  52.961  0.00  0.00    +0.000 P 
ATOM   1468  OP1 A   B  69       7.816  32.826  53.054  0.00  0.00    +0.000 OA
BRANCH14671469
ATOM   1469  OP2 A   B  69       6.587  30.872  54.187  0.00  0.00    +0.000 OA
ATOM   1470  H   A   B  69       5.980  30.150  53.961  0.00  0.00    +0.000 HD
ENDBRANCH14671469
BRANCH14671471
ATOM   1471  O5' A   B  69       5.524  32.143  52.332  0.00  0.00    +0.000 OA
BRANCH14711472
ATOM   1472  C5' A   B  69       5.508  32.877  51.115  0.00  0.00    +0.000 C 
BRANCH14721473
ATOM   1473  C4' A   B  69       4.159  32.810  50.447  0.00  0.00    +0.000 C 
ATOM   1474  O4' A   B  69       3.819  31.433  50.156  0.00  0.00    +0.000 OA
ATOM   1475  C3' A   B  69       2.979  33.292  51.266  0.00  0.00    +0.000 C 
ATOM   1476  C2' A   B  69       1.818  32.630  50.546  0.00  0.00    +0.000 C 
ATOM   1477  C1' A   B  69       2.417  31.259  50.255  0.00  0.00    +0.000 C 
BRANCH14771478
ATOM   1478  N9  A   B  69       2.128  30.314  51.345  0.00  0.00    +0.000 N 
ATOM   1479  C8  A   B  69       2.924  29.971  52.411  0.00  0.00    +0.000 A 
ATOM   1480  N7  A   B  69       2.366  29.107  53.226  0.00  0.00    +0.000 NA
ATOM   1481  C5  A   B  69       1.118  28.873  52.661  0.00  0.00    +0.000 A 
ATOM   1482  C6  A   B  69       0.043  28.054  53.044  0.00  0.00    +0.000 A 
ATOM   1483  N6  A   B  69       0.050  27.290  54.142  0.00  0.00    +0.000 N 
ATOM   1484  N1  A   B  69      -1.055  28.052  52.258  0.00  0.00    +0.000 NA
ATOM   1485  C2  A   B  69      -1.062  28.824  51.164  0.00  0.00    +0.000 A 
ATOM   1486  N3  A   B  69      -0.117  29.631  50.698  0.00  0.00    +0.000 NA
ATOM   1487  C4  A   B  69       0.961  29.610  51.507  0.00  0.00    +0.000 A 
ATOM   1488  H   A   B  69      -0.733  26.735  54.361  0.00  0.00    +0.000 HD
ATOM   1489  H   A   B  69       0.839  27.282  54.731  0.00  0.00    +0.000 HD
ENDBRANCH14771478
BRANCH14761490
ATOM   1490  O2' A   B  69       1.523  33.277  49.325  0.00  0.00    +0.000 OA
ATOM   1491  H   A   B  69       2.319  33.303  48.772  0.00  0.00    +0.000 HD
ENDBRANCH14761490
BRANCH14751492
ATOM   1492  O3' A   B  69       2.880  34.707  51.337  0.00  0.00    +0.000 OA
BRANCH14921493
ATOM   1493  P   A   B  70       2.196  35.336  52.610  0.00  0.00    +0.000 P 
ATOM   1494  OP1 A   B  70       2.414  36.800  52.493  0.00  0.00    +0.000 OA
BRANCH14931495
ATOM   1495  OP2 A   B  70       2.629  34.620  53.840  0.00  0.00    +0.000 OA
ATOM   1496  H   A   B  70       2.416  33.677  53.757  0.00  0.00    +0.000 HD
ENDBRANCH14931495
BRANCH14931497
ATOM   1497  O5' A   B  70       0.646  35.035  52.398  0.00  0.00    +0.000 OA
BRANCH14971498
ATOM   1498  C5' A   B  70      -0.011  35.485  51.220  0.00  0.00    +0.000 C 
BRANCH14981499
ATOM   1499  C4' A   B  70      -1.419  34.956  51.137  0.00  0.00    +0.000 C 
ATOM   1500  O4' A   B  70      -1.416  33.508  51.053  0.00  0.00    +0.000 OA
ATOM   1501  C3' A   B  70      -2.304  35.229  52.333  0.00  0.00    +0.000 C 
ATOM   1502  C2' A   B  70      -3.407  34.197  52.143  0.00  0.00    +0.000 C 
ATOM   1503  C1' A   B  70      -2.602  32.999  51.637  0.00  0.00    +0.000 C 
BRANCH15031504
ATOM   1504  N9  A   B  70      -2.248  32.066  52.718  0.00  0.00    +0.000 N 
ATOM   1505  C8  A   B  70      -1.060  31.951  53.394  0.00  0.00    +0.000 A 
ATOM   1506  N7  A   B  70      -1.065  31.016  54.316  0.00  0.00    +0.000 NA
ATOM   1507  C5  A   B  70      -2.345  30.484  54.243  0.00  0.00    +0.000 A 
ATOM   1508  C6  A   B  70      -2.987  29.458  54.958  0.00  0.00    +0.000 A 
ATOM   1509  N6  A   B  70      -2.402  28.755  55.937  0.00  0.00    +0.000 N 
ATOM   1510  N1  A   B  70      -4.265  29.174  54.638  0.00  0.00    +0.000 NA
ATOM   1511  C2  A   B  70      -4.852  29.879  53.662  0.00  0.00    +0.000 A 
ATOM   1512  N3  A   B  70      -4.355  30.861  52.919  0.00  0.00    +0.000 NA
ATOM   1513  C4  A   B  70      -3.080  31.119  53.266  0.00  0.00    +0.000 A 
ATOM   1514  H   A   B  70      -1.469  28.944  56.189  0.00  0.00    +0.000 HD
ATOM   1515  H   A   B  70      -2.905  28.049  56.405  0.00  0.00    +0.000 HD
ENDBRANCH15031504
BRANCH15021516
ATOM   1516  O2' A   B  70      -4.333  34.595  51.150  0.00  0.00    +0.000 OA
ATOM   1517  H   A   B  70      -3.863  34.766  50.319  0.00  0.00    +0.000 HD
ENDBRANCH15021516
BRANCH15011518
ATOM   1518  O3' A   B  70      -2.776  36.568  52.368  0.00  0.00    +0.000 OA
BRANCH15181519
ATOM   1519  P   U   B  71      -2.973  37.273  53.766  0.00  0.00    +0.000 P 
ATOM   1520  OP1 U   B  71      -3.001  38.734  53.498  0.00  0.00    +0.000 OA
BRANCH15191521
ATOM   1521  OP2 U   B  71      -2.005  36.720  54.752  0.00  0.00    +0.000 OA
ATOM   1522  H   U   B  71      -1.106  36.991  54.509  0.00  0.00    +0.000 HD
ENDBRANCH15191521
BRANCH15191523
ATOM   1523  O5' U   B  71      -4.430  36.805  54.201  0.00  0.00    +0.000 OA
BRANCH15231524
ATOM   1524  C5' U   B  71      -5.553  37.044  53.363  0.00  0.00    +0.000 C 
BRANCH15241525
ATOM   1525  C4' U   B  71      -6.727  36.195  53.771  0.00  0.00    +0.000 C 
ATOM   1526  O4' U   B  71      -6.410  34.791  53.577  0.00  0.00    +0.000 OA
ATOM   1527  C3' U   B  71      -7.125  36.276  55.222  0.00  0.00    +0.000 C 
ATOM   1528  C2' U   B  71      -7.902  34.979  55.409  0.00  0.00    +0.000 C 
ATOM   1529  C1' U   B  71      -7.067  34.016  54.561  0.00  0.00    +0.000 C 
BRANCH15291530
ATOM   1530  N1  U   B  71      -6.051  33.295  55.363  0.00  0.00    +0.000 N 
ATOM   1531  C2  U   B  71      -6.462  32.161  56.037  0.00  0.00    +0.000 A 
ATOM   1532  O2  U   B  71      -7.610  31.742  55.987  0.00  0.00    +0.000 OA
ATOM   1533  N3  U   B  71      -5.484  31.526  56.770  0.00  0.00    +0.000 N 
ATOM   1534  C4  U   B  71      -4.164  31.907  56.898  0.00  0.00    +0.000 A 
ATOM   1535  O4  U   B  71      -3.406  31.237  57.597  0.00  0.00    +0.000 OA
ATOM   1536  C5  U   B  71      -3.818  33.088  56.174  0.00  0.00    +0.000 A 
ATOM   1537  C6  U   B  71      -4.749  33.727  55.447  0.00  0.00    +0.000 A 
ATOM   1538  H   U   B  71      -5.756  30.713  57.255  0.00  0.00    +0.000 HD
ENDBRANCH15291530
BRANCH15281539
ATOM   1539  O2' U   B  71      -9.204  35.063  54.869  0.00  0.00    +0.000 OA
ATOM   1540  H   U   B  71      -9.150  35.309  53.932  0.00  0.00    +0.000 HD
ENDBRANCH15281539
BRANCH15271541
ATOM   1541  O3' U   B  71      -7.882  37.441  55.524  0.00  0.00    +0.000 OA
BRANCH15411542
ATOM   1542  P   C   B  72      -7.686  38.132  56.920  0.00  0.00    +0.000 P 
ATOM   1543  OP1 C   B  72      -8.356  39.453  56.826  0.00  0.00    +0.000 OA
BRANCH15421544
ATOM   1544  OP2 C   B  72      -6.259  38.055  57.327  0.00  0.00    +0.000 OA
ATOM   1545  H   C   B  72      -5.724  38.611  56.738  0.00  0.00    +0.000 HD
ENDBRANCH15421544
BRANCH15421546
ATOM   1546  O5' C   B  72      -8.526  37.209  57.908  0.00  0.00    +0.000 OA
BRANCH15461547
ATOM   1547  C5' C   B  72      -9.922  37.025  57.726  0.00  0.00    +0.000 C 
BRANCH15471548
ATOM   1548  C4' C   B  72     -10.425  35.843  58.514  0.00  0.00    +0.000 C 
ATOM   1549  O4' C   B  72      -9.756  34.631  58.068  0.00  0.00    +0.000 OA
ATOM   1550  C3' C   B  72     -10.155  35.870  59.999  0.00  0.00    +0.000 C 
ATOM   1551  C2' C   B  72     -10.288  34.399  60.366  0.00  0.00    +0.000 C 
ATOM   1552  C1' C   B  72      -9.616  33.740  59.162  0.00  0.00    +0.000 C 
BRANCH15521553
ATOM   1553  N1  C   B  72      -8.177  33.485  59.399  0.00  0.00    +0.000 N 
ATOM   1554  C2  C   B  72      -7.821  32.334  60.109  0.00  0.00    +0.000 A 
ATOM   1555  O2  C   B  72      -8.711  31.566  60.504  0.00  0.00    +0.000 OA
ATOM   1556  N3  C   B  72      -6.506  32.081  60.348  0.00  0.00    +0.000 NA
ATOM   1557  C4  C   B  72      -5.570  32.924  59.909  0.00  0.00    +0.000 A 
ATOM   1558  N4  C   B  72      -4.296  32.634  60.168  0.00  0.00    +0.000 N 
ATOM   1559  C5  C   B  72      -5.910  34.099  59.188  0.00  0.00    +0.000 A 
ATOM   1560  C6  C   B  72      -7.211  34.339  58.955  0.00  0.00    +0.000 A 
ATOM   1561  H   C   B  72      -3.581  33.236  59.858  0.00  0.00    +0.000 HD
ATOM   1562  H   C   B  72      -4.069  31.818  60.670  0.00  0.00    +0.000 HD
ENDBRANCH15521553
BRANCH15511563
ATOM   1563  O2' C   B  72     -11.636  33.990  60.428  0.00  0.00    +0.000 OA
ATOM   1564  H   C   B  72     -12.071  34.181  59.582  0.00  0.00    +0.000 HD
ENDBRANCH15511563
BRANCH15501565
ATOM   1565  O3' C   B  72     -11.050  36.710  60.714  0.00  0.00    +0.000 OA
BRANCH15651566
ATOM   1566  P   U   B  73     -10.564  37.374  62.083  0.00  0.00    +0.000 P 
ATOM   1567  OP2 U   B  73      -9.150  37.808  61.935  0.00  0.00    +0.000 OA
BRANCH15661568
ATOM   1568  OP1 U   B  73     -11.603  38.359  62.462  0.00  0.00    +0.000 OA
ATOM   1569  H   U   B  73     -11.592  39.098  61.834  0.00  0.00    +0.000 HD
ENDBRANCH15661568
BRANCH15661570
ATOM   1570  O5' U   B  73     -10.596  36.168  63.123  0.00  0.00    +0.000 OA
BRANCH15701571
ATOM   1571  C5' U   B  73     -11.812  35.508  63.437  0.00  0.00    +0.000 C 
BRANCH15711572
ATOM   1572  C4' U   B  73     -11.579  34.308  64.322  0.00  0.00    +0.000 C 
ATOM   1573  O4' U   B  73     -10.772  33.323  63.623  0.00  0.00    +0.000 OA
ATOM   1574  C3' U   B  73     -10.807  34.563  65.594  0.00  0.00    +0.000 C 
ATOM   1575  C2' U   B  73     -10.312  33.166  65.944  0.00  0.00    +0.000 C 
ATOM   1576  C1' U   B  73      -9.968  32.622  64.557  0.00  0.00    +0.000 C 
BRANCH15761577
ATOM   1577  N1  U   B  73      -8.544  32.815  64.219  0.00  0.00    +0.000 N 
ATOM   1578  C2  U   B  73      -7.634  31.922  64.758  0.00  0.00    +0.000 A 
ATOM   1579  O2  U   B  73      -7.964  30.999  65.484  0.00  0.00    +0.000 OA
ATOM   1580  N3  U   B  73      -6.319  32.145  64.418  0.00  0.00    +0.000 N 
ATOM   1581  C4  U   B  73      -5.830  33.151  63.610  0.00  0.00    +0.000 A 
ATOM   1582  O4  U   B  73      -4.622  33.224  63.399  0.00  0.00    +0.000 OA
ATOM   1583  C5  U   B  73      -6.831  34.028  63.092  0.00  0.00    +0.000 A 
ATOM   1584  C6  U   B  73      -8.124  33.838  63.404  0.00  0.00    +0.000 A 
ATOM   1585  H   U   B  73      -5.656  31.520  64.791  0.00  0.00    +0.000 HD
ENDBRANCH15761577
BRANCH15751586
ATOM   1586  O2' U   B  73     -11.331  32.373  66.515  0.00  0.00    +0.000 OA
ATOM   1587  H   U   B  73     -12.088  32.335  65.910  0.00  0.00    +0.000 HD
ENDBRANCH15751586
BRANCH15741588
ATOM   1588  O3' U   B  73     -11.607  35.147  66.616  0.00  0.00    +0.000 OA
BRANCH15881589
ATOM   1589  P   C   B  74     -10.935  36.109  67.651  0.00  0.00    +0.000 P 
ATOM   1590  OP2 C   B  74      -9.955  36.979  66.947  0.00  0.00    +0.000 OA
BRANCH15891591
ATOM   1591  OP1 C   B  74     -12.036  36.722  68.432  0.00  0.00    +0.000 OA
ATOM   1592  H   C   B  74     -12.542  37.322  67.862  0.00  0.00    +0.000 HD
ENDBRANCH15891591
BRANCH15891593
ATOM   1593  O5' C   B  74     -10.119  35.130  68.603  0.00  0.00    +0.000 OA
BRANCH15931594
ATOM   1594  C5' C   B  74     -10.788  34.160  69.395  0.00  0.00    +0.000 C 
BRANCH15941595
ATOM   1595  C4' C   B  74      -9.805  33.259  70.099  0.00  0.00    +0.000 C 
ATOM   1596  O4' C   B  74      -9.035  32.509  69.118  0.00  0.00    +0.000 OA
ATOM   1597  C3' C   B  74      -8.749  33.953  70.928  0.00  0.00    +0.000 C 
ATOM   1598  C2' C   B  74      -7.669  32.882  71.019  0.00  0.00    +0.000 C 
ATOM   1599  C1' C   B  74      -7.730  32.280  69.617  0.00  0.00    +0.000 C 
BRANCH15991600
ATOM   1600  N1  C   B  74      -6.749  32.889  68.698  0.00  0.00    +0.000 N 
ATOM   1601  C2  C   B  74      -5.423  32.445  68.755  0.00  0.00    +0.000 A 
ATOM   1602  O2  C   B  74      -5.115  31.558  69.562  0.00  0.00    +0.000 OA
ATOM   1603  N3  C   B  74      -4.505  32.994  67.917  0.00  0.00    +0.000 NA
ATOM   1604  C4  C   B  74      -4.869  33.945  67.055  0.00  0.00    +0.000 A 
ATOM   1605  N4  C   B  74      -3.937  34.455  66.251  0.00  0.00    +0.000 N 
ATOM   1606  C5  C   B  74      -6.210  34.411  66.983  0.00  0.00    +0.000 A 
ATOM   1607  C6  C   B  74      -7.109  33.862  67.812  0.00  0.00    +0.000 A 
ATOM   1608  H   C   B  74      -4.176  35.158  65.605  0.00  0.00    +0.000 HD
ATOM   1609  H   C   B  74      -3.010  34.129  66.303  0.00  0.00    +0.000 HD
ENDBRANCH15991600
BRANCH15981610
ATOM   1610  O2' C   B  74      -7.994  31.886  71.966  0.00  0.00    +0.000 OA
ATOM   1611  H   C   B  74      -8.855  31.497  71.744  0.00  0.00    +0.000 HD
ENDBRANCH15981610
BRANCH15971612
ATOM   1612  O3' C   B  74      -9.237  34.365  72.197  0.00  0.00    +0.000 OA
BRANCH16121613
ATOM   1613  P   C   B  75      -8.662  35.650  72.882  0.00  0.00    +0.000 P 
ATOM   1614  OP2 C   B  75      -8.481  36.692  71.843  0.00  0.00    +0.000 OA
BRANCH16131615
ATOM   1615  OP1 C   B  75      -9.503  35.932  74.069  0.00  0.00    +0.000 OA
ATOM   1616  H   C   B  75     -10.386  36.211  73.781  0.00  0.00    +0.000 HD
ENDBRANCH16131615
BRANCH16131617
ATOM   1617  O5' C   B  75      -7.221  35.195  73.377  0.00  0.00    +0.000 OA
BRANCH16171618
ATOM   1618  C5' C   B  75      -7.070  34.175  74.348  0.00  0.00    +0.000 C 
BRANCH16181619
ATOM   1619  C4' C   B  75      -5.617  33.840  74.569  0.00  0.00    +0.000 C 
ATOM   1620  O4' C   B  75      -5.055  33.273  73.352  0.00  0.00    +0.000 OA
ATOM   1621  C3' C   B  75      -4.713  35.013  74.871  0.00  0.00    +0.000 C 
ATOM   1622  C2' C   B  75      -3.343  34.474  74.471  0.00  0.00    +0.000 C 
ATOM   1623  C1' C   B  75      -3.694  33.635  73.244  0.00  0.00    +0.000 C 
BRANCH16231624
ATOM   1624  N1  C   B  75      -3.486  34.360  71.977  0.00  0.00    +0.000 N 
ATOM   1625  C2  C   B  75      -2.205  34.375  71.421  0.00  0.00    +0.000 A 
ATOM   1626  O2  C   B  75      -1.285  33.783  71.997  0.00  0.00    +0.000 OA
ATOM   1627  N3  C   B  75      -1.999  35.037  70.250  0.00  0.00    +0.000 NA
ATOM   1628  C4  C   B  75      -3.011  35.662  69.648  0.00  0.00    +0.000 A 
ATOM   1629  N4  C   B  75      -2.768  36.297  68.502  0.00  0.00    +0.000 N 
ATOM   1630  C5  C   B  75      -4.322  35.661  70.196  0.00  0.00    +0.000 A 
ATOM   1631  C6  C   B  75      -4.512  35.002  71.350  0.00  0.00    +0.000 A 
ATOM   1632  H   C   B  75      -3.497  36.767  68.036  0.00  0.00    +0.000 HD
ATOM   1633  H   C   B  75      -1.860  36.296  68.122  0.00  0.00    +0.000 HD
ENDBRANCH16231624
BRANCH16221634
ATOM   1634  O2' C   B  75      -2.803  33.630  75.468  0.00  0.00    +0.000 OA
ATOM   1635  H   C   B  75      -3.425  32.909  75.652  0.00  0.00    +0.000 HD
ENDBRANCH16221634
BRANCH16211636
ATOM   1636  O3' C   B  75      -4.785  35.408  76.235  0.00  0.00    +0.000 OA
BRANCH16361637
ATOM   1637  P   A   B  76      -4.806  36.917  76.616  0.00  0.00    +0.000 P 
ATOM   1638  OP2 A   B  76      -5.503  37.670  75.548  0.00  0.00    +0.000 OA
BRANCH16371639
ATOM   1639  OP1 A   B  76      -5.266  37.014  78.022  0.00  0.00    +0.000 OA
ATOM   1640  H   A   B  76      -6.206  36.778  78.072  0.00  0.00    +0.000 HD
ENDBRANCH16371639
BRANCH16371641
ATOM   1641  O5' A   B  76      -3.263  37.309  76.564  0.00  0.00    +0.000 OA
BRANCH16411642
ATOM   1642  C5' A   B  76      -2.327  36.726  77.458  0.00  0.00    +0.000 C 
BRANCH16421643
ATOM   1643  C4' A   B  76      -0.908  36.901  76.960  0.00  0.00    +0.000 C 
ATOM   1644  O4' A   B  76      -0.787  36.277  75.661  0.00  0.00    +0.000 OA
ATOM   1645  C3' A   B  76      -0.467  38.335  76.713  0.00  0.00    +0.000 C 
ATOM   1646  C2' A   B  76       0.643  38.162  75.692  0.00  0.00    +0.000 C 
ATOM   1647  C1' A   B  76       0.091  37.017  74.840  0.00  0.00    +0.000 C 
BRANCH16471648
ATOM   1648  N9  A   B  76      -0.660  37.506  73.675  0.00  0.00    +0.000 N 
ATOM   1649  C8  A   B  76      -1.965  37.903  73.616  0.00  0.00    +0.000 A 
ATOM   1650  N7  A   B  76      -2.350  38.291  72.423  0.00  0.00    +0.000 NA
ATOM   1651  C5  A   B  76      -1.215  38.139  71.641  0.00  0.00    +0.000 A 
ATOM   1652  C6  A   B  76      -0.958  38.375  70.278  0.00  0.00    +0.000 A 
ATOM   1653  N1  A   B  76       0.281  38.116  69.813  0.00  0.00    +0.000 NA
ATOM   1654  C2  A   B  76       1.197  37.648  70.669  0.00  0.00    +0.000 A 
ATOM   1655  N3  A   B  76       1.076  37.383  71.967  0.00  0.00    +0.000 NA
ATOM   1656  C4  A   B  76      -0.172  37.657  72.393  0.00  0.00    +0.000 A 
BRANCH16521657
ATOM   1657  N6  A   B  76      -1.878  38.844  69.425  0.00  0.00    +0.000 N 
ATOM   1658  H   A   B  76      -1.644  38.991  68.480  0.00  0.00    +0.000 HD
ATOM   1659  H   A   B  76      -2.789  39.042  69.743  0.00  0.00    +0.000 HD
ENDBRANCH16521657
ENDBRANCH16471648
BRANCH16451660
ATOM   1660  O3' A   B  76      -0.050  38.991  77.906  0.00  0.00    +0.000 OA
ATOM   1661  H   A   B  76       0.673  38.489  78.315  0.00  0.00    +0.000 HD
ENDBRANCH16451660
BRANCH16461662
ATOM   1662  O2' A   B  76       1.849  37.753  76.303  0.00  0.00    +0.000 OA
ATOM   1663  H   A   B  76       1.697  36.936  76.804  0.00  0.00    +0.000 HD
ENDBRANCH16461662
ENDBRANCH16421643
ENDBRANCH16411642
ENDBRANCH16371641
ENDBRANCH16361637
ENDBRANCH16211636
ENDBRANCH16181619
ENDBRANCH16171618
ENDBRANCH16131617
ENDBRANCH16121613
ENDBRANCH15971612
ENDBRANCH15941595
ENDBRANCH15931594
ENDBRANCH15891593
ENDBRANCH15881589
ENDBRANCH15741588
ENDBRANCH15711572
ENDBRANCH15701571
ENDBRANCH15661570
ENDBRANCH15651566
ENDBRANCH15501565
ENDBRANCH15471548
ENDBRANCH15461547
ENDBRANCH15421546
ENDBRANCH15411542
ENDBRANCH15271541
ENDBRANCH15241525
ENDBRANCH15231524
ENDBRANCH15191523
ENDBRANCH15181519
ENDBRANCH15011518
ENDBRANCH14981499
ENDBRANCH14971498
ENDBRANCH14931497
ENDBRANCH14921493
ENDBRANCH14751492
ENDBRANCH14721473
ENDBRANCH14711472
ENDBRANCH14671471
ENDBRANCH14661467
ENDBRANCH14491466
ENDBRANCH14461447
ENDBRANCH14451446
ENDBRANCH14411445
ENDBRANCH14401441
ENDBRANCH14231440
ENDBRANCH14201421
ENDBRANCH14191420
ENDBRANCH14151419
ENDBRANCH14141415
ENDBRANCH13971414
ENDBRANCH13941395
ENDBRANCH13931394
ENDBRANCH13891393
ENDBRANCH13881389
ENDBRANCH13731388
ENDBRANCH13701371
ENDBRANCH13691370
ENDBRANCH13651369
ENDBRANCH13641365
ENDBRANCH13471364
ENDBRANCH13441345
ENDBRANCH13431344
ENDBRANCH13391343
ENDBRANCH13381339
ENDBRANCH13241338
ENDBRANCH13211322
ENDBRANCH13201321
ENDBRANCH13161320
ENDBRANCH13151316
ENDBRANCH 5431315
BRANCH   11664
ATOM   1664  C5' A   B   9      -0.739  15.910  43.969  0.00  0.00    +0.000 C 
BRANCH16641665
ATOM   1665  O5' A   B   9      -0.517  17.193  43.393  0.00  0.00    +0.000 OA
BRANCH16651666
ATOM   1666  P   A   B   9       0.986  17.639  43.103  0.00  0.00    +0.000 P 
ATOM   1667  OP2 A   B   9       1.123  17.804  41.639  0.00  0.00    +0.000 OA
BRANCH16661668
ATOM   1668  OP1 A   B   9       1.891  16.730  43.837  0.00  0.00    +0.000 OA
ATOM   1669  H   A   B   9       1.805  15.832  43.481  0.00  0.00    +0.000 HD
ENDBRANCH16661668
BRANCH16661670
ATOM   1670  O3' U   B   8       1.150  19.081  43.703  0.00  0.00    +0.000 OA
BRANCH16701673
ATOM   1671  C4' U   B   8       0.084  20.979  44.762  0.00  0.00    +0.000 C 
ATOM   1672  O4' U   B   8       0.061  21.489  46.119  0.00  0.00    +0.000 OA
ATOM   1673  C3' U   B   8       0.565  19.552  44.912  0.00  0.00    +0.000 C 
ATOM   1674  C2' U   B   8       1.564  19.649  46.062  0.00  0.00    +0.000 C 
ATOM   1675  C1' U   B   8       0.933  20.733  46.935  0.00  0.00    +0.000 C 
BRANCH16751676
ATOM   1676  N1  U   B   8       0.171  20.195  48.083  0.00  0.00    +0.000 N 
ATOM   1677  C2  U   B   8       0.883  19.846  49.217  0.00  0.00    +0.000 A 
ATOM   1678  O2  U   B   8       2.093  19.956  49.298  0.00  0.00    +0.000 OA
ATOM   1679  N3  U   B   8       0.124  19.354  50.251  0.00  0.00    +0.000 N 
ATOM   1680  C4  U   B   8      -1.244  19.186  50.274  0.00  0.00    +0.000 A 
ATOM   1681  O4  U   B   8      -1.779  18.734  51.282  0.00  0.00    +0.000 OA
ATOM   1682  C5  U   B   8      -1.909  19.576  49.069  0.00  0.00    +0.000 A 
ATOM   1683  C6  U   B   8      -1.195  20.058  48.041  0.00  0.00    +0.000 A 
ATOM   1684  H   U   B   8       0.611  19.092  51.066  0.00  0.00    +0.000 HD
ENDBRANCH16751676
BRANCH16741685
ATOM   1685  O2' U   B   8       2.829  20.105  45.613  0.00  0.00    +0.000 OA
ATOM   1686  H   U   B   8       2.724  20.959  45.165  0.00  0.00    +0.000 HD
ENDBRANCH16741685
BRANCH16711687
ATOM   1687  C5' U   B   8      -1.281  21.151  44.136  0.00  0.00    +0.000 C 
BRANCH16871688
ATOM   1688  O5' U   B   8      -2.265  20.421  44.847  0.00  0.00    +0.000 OA
BRANCH16881689
ATOM   1689  P   U   B   8      -3.818  20.657  44.579  0.00  0.00    +0.000 P 
ATOM   1690  OP1 U   B   8      -4.089  20.443  43.139  0.00  0.00    +0.000 OA
BRANCH16891691
ATOM   1691  OP2 U   B   8      -4.577  19.876  45.594  0.00  0.00    +0.000 OA
ATOM   1692  H   U   B   8      -4.475  18.928  45.415  0.00  0.00    +0.000 HD
ENDBRANCH16891691
BRANCH16891693
ATOM   1693  O3' C   B   7      -3.992  22.245  44.884  0.00  0.00    +0.000 OA
BRANCH16931696
ATOM   1694  C4' C   B   7      -5.079  23.866  46.341  0.00  0.00    +0.000 C 
ATOM   1695  O4' C   B   7      -4.710  24.489  47.600  0.00  0.00    +0.000 OA
ATOM   1696  C3' C   B   7      -4.124  22.700  46.223  0.00  0.00    +0.000 C 
ATOM   1697  C2' C   B   7      -2.836  23.283  46.793  0.00  0.00    +0.000 C 
ATOM   1698  C1' C   B   7      -3.378  24.141  47.933  0.00  0.00    +0.000 C 
BRANCH16981699
ATOM   1699  N1  C   B   7      -3.378  23.428  49.228  0.00  0.00    +0.000 N 
ATOM   1700  C2  C   B   7      -2.182  23.349  49.949  0.00  0.00    +0.000 A 
ATOM   1701  O2  C   B   7      -1.163  23.878  49.489  0.00  0.00    +0.000 OA
ATOM   1702  N3  C   B   7      -2.170  22.697  51.137  0.00  0.00    +0.000 NA
ATOM   1703  C4  C   B   7      -3.282  22.138  51.609  0.00  0.00    +0.000 A 
ATOM   1704  N4  C   B   7      -3.216  21.510  52.784  0.00  0.00    +0.000 N 
ATOM   1705  C5  C   B   7      -4.507  22.205  50.896  0.00  0.00    +0.000 A 
ATOM   1706  C6  C   B   7      -4.511  22.853  49.724  0.00  0.00    +0.000 A 
ATOM   1707  H   C   B   7      -4.020  21.086  53.161  0.00  0.00    +0.000 HD
ATOM   1708  H   C   B   7      -2.363  21.471  53.274  0.00  0.00    +0.000 HD
ENDBRANCH16981699
BRANCH16971709
ATOM   1709  O2' C   B   7      -2.182  24.117  45.861  0.00  0.00    +0.000 OA
ATOM   1710  H   C   B   7      -2.788  24.817  45.573  0.00  0.00    +0.000 HD
ENDBRANCH16971709
BRANCH16941711
ATOM   1711  C5' C   B   7      -6.548  23.516  46.354  0.00  0.00    +0.000 C 
BRANCH17111712
ATOM   1712  O5' C   B   7      -6.845  22.583  47.379  0.00  0.00    +0.000 OA
BRANCH17121713
ATOM   1713  P   C   B   7      -8.351  22.260  47.786  0.00  0.00    +0.000 P 
ATOM   1714  OP1 C   B   7      -9.093  21.858  46.567  0.00  0.00    +0.000 OA
BRANCH17131715
ATOM   1715  OP2 C   B   7      -8.315  21.354  48.962  0.00  0.00    +0.000 OA
ATOM   1716  H   C   B   7      -7.983  20.484  48.690  0.00  0.00    +0.000 HD
ENDBRANCH17131715
BRANCH17131717
ATOM   1717  O3' A   B   6      -8.914  23.720  48.269  0.00  0.00    +0.000 OA
BRANCH17171720
ATOM   1718  C4' A   B   6      -9.610  25.028  50.214  0.00  0.00    +0.000 C 
ATOM   1719  O4' A   B   6      -8.900  25.885  51.143  0.00  0.00    +0.000 OA
ATOM   1720  C3' A   B   6      -8.499  24.278  49.508  0.00  0.00    +0.000 C 
ATOM   1721  C2' A   B   6      -7.436  25.356  49.360  0.00  0.00    +0.000 C 
ATOM   1722  C1' A   B   6      -7.574  26.089  50.689  0.00  0.00    +0.000 C 
BRANCH17221723
ATOM   1723  N9  A   B   6      -6.644  25.568  51.699  0.00  0.00    +0.000 N 
ATOM   1724  C8  A   B   6      -6.892  24.672  52.707  0.00  0.00    +0.000 A 
ATOM   1725  N7  A   B   6      -5.843  24.404  53.443  0.00  0.00    +0.000 NA
ATOM   1726  C5  A   B   6      -4.836  25.175  52.877  0.00  0.00    +0.000 A 
ATOM   1727  C6  A   B   6      -3.478  25.343  53.197  0.00  0.00    +0.000 A 
ATOM   1728  N6  A   B   6      -2.871  24.709  54.206  0.00  0.00    +0.000 N 
ATOM   1729  N1  A   B   6      -2.752  26.186  52.437  0.00  0.00    +0.000 NA
ATOM   1730  C2  A   B   6      -3.361  26.819  51.425  0.00  0.00    +0.000 A 
ATOM   1731  N3  A   B   6      -4.626  26.746  51.027  0.00  0.00    +0.000 NA
ATOM   1732  C4  A   B   6      -5.315  25.895  51.806  0.00  0.00    +0.000 A 
ATOM   1733  H   A   B   6      -1.915  24.867  54.383  0.00  0.00    +0.000 HD
ATOM   1734  H   A   B   6      -3.380  24.084  54.772  0.00  0.00    +0.000 HD
ENDBRANCH17221723
BRANCH17211735
ATOM   1735  O2' A   B   6      -7.735  26.250  48.306  0.00  0.00    +0.000 OA
ATOM   1736  H   A   B   6      -8.611  26.639  48.451  0.00  0.00    +0.000 HD
ENDBRANCH17211735
BRANCH17181737
ATOM   1737  C5' A   B   6     -10.615  24.182  50.959  0.00  0.00    +0.000 C 
BRANCH17371738
ATOM   1738  O5' A   B   6      -9.973  23.316  51.882  0.00  0.00    +0.000 OA
BRANCH17381739
ATOM   1739  P   A   B   6     -10.819  22.530  52.978  0.00  0.00    +0.000 P 
ATOM   1740  OP1 A   B   6     -11.936  21.830  52.296  0.00  0.00    +0.000 OA
BRANCH17391741
ATOM   1741  OP2 A   B   6      -9.867  21.764  53.822  0.00  0.00    +0.000 OA
ATOM   1742  H   A   B   6      -9.487  21.038  53.303  0.00  0.00    +0.000 HD
ENDBRANCH17391741
BRANCH17391743
ATOM   1743  O3' U   B   5     -11.448  23.748  53.873  0.00  0.00    +0.000 OA
BRANCH17431746
ATOM   1744  C4' U   B   5     -11.372  24.855  56.046  0.00  0.00    +0.000 C 
ATOM   1745  O4' U   B   5     -10.561  25.924  56.599  0.00  0.00    +0.000 OA
ATOM   1746  C3' U   B   5     -10.628  24.459  54.794  0.00  0.00    +0.000 C 
ATOM   1747  C2' U   B   5     -10.150  25.809  54.269  0.00  0.00    +0.000 C 
ATOM   1748  C1' U   B   5      -9.782  26.513  55.575  0.00  0.00    +0.000 C 
BRANCH17481749
ATOM   1749  N1  U   B   5      -8.350  26.363  55.904  0.00  0.00    +0.000 N 
ATOM   1750  C2  U   B   5      -7.467  27.237  55.295  0.00  0.00    +0.000 A 
ATOM   1751  O2  U   B   5      -7.824  28.107  54.516  0.00  0.00    +0.000 OA
ATOM   1752  N3  U   B   5      -6.144  27.054  55.629  0.00  0.00    +0.000 N 
ATOM   1753  C4  U   B   5      -5.626  26.108  56.491  0.00  0.00    +0.000 A 
ATOM   1754  O4  U   B   5      -4.416  26.070  56.688  0.00  0.00    +0.000 OA
ATOM   1755  C5  U   B   5      -6.604  25.246  57.076  0.00  0.00    +0.000 A 
ATOM   1756  C6  U   B   5      -7.901  25.399  56.772  0.00  0.00    +0.000 A 
ATOM   1757  H   U   B   5      -5.497  27.664  55.207  0.00  0.00    +0.000 HD
ENDBRANCH17481749
BRANCH17471758
ATOM   1758  O2' U   B   5     -11.189  26.519  53.633  0.00  0.00    +0.000 OA
ATOM   1759  H   U   B   5     -11.934  26.620  54.246  0.00  0.00    +0.000 HD
ENDBRANCH17471758
BRANCH17441760
ATOM   1760  C5' U   B   5     -11.570  23.767  57.075  0.00  0.00    +0.000 C 
BRANCH17601761
ATOM   1761  O5' U   B   5     -10.338  23.155  57.425  0.00  0.00    +0.000 OA
BRANCH17611762
ATOM   1762  P   U   B   5     -10.250  22.119  58.636  0.00  0.00    +0.000 P 
ATOM   1763  OP1 U   B   5     -11.274  21.067  58.433  0.00  0.00    +0.000 OA
BRANCH17621764
ATOM   1764  OP2 U   B   5      -8.821  21.740  58.812  0.00  0.00    +0.000 OA
ATOM   1765  H   U   B   5      -8.536  21.195  58.062  0.00  0.00    +0.000 HD
ENDBRANCH17621764
BRANCH17621766
ATOM   1766  O3' A   B   4     -10.700  23.032  59.906  0.00  0.00    +0.000 OA
BRANCH17661769
ATOM   1767  C4' A   B   4      -9.968  24.149  61.949  0.00  0.00    +0.000 C 
ATOM   1768  O4' A   B   4      -9.387  25.451  62.218  0.00  0.00    +0.000 OA
ATOM   1769  C3' A   B   4      -9.813  24.000  60.450  0.00  0.00    +0.000 C 
ATOM   1770  C2' A   B   4     -10.083  25.414  59.958  0.00  0.00    +0.000 C 
ATOM   1771  C1' A   B   4      -9.385  26.232  61.038  0.00  0.00    +0.000 C 
BRANCH17711772
ATOM   1772  N9  A   B   4      -7.995  26.544  60.677  0.00  0.00    +0.000 N 
ATOM   1773  C8  A   B   4      -6.851  25.915  61.096  0.00  0.00    +0.000 A 
ATOM   1774  N7  A   B   4      -5.756  26.428  60.593  0.00  0.00    +0.000 NA
ATOM   1775  C5  A   B   4      -6.213  27.462  59.784  0.00  0.00    +0.000 A 
ATOM   1776  C6  A   B   4      -5.545  28.397  58.974  0.00  0.00    +0.000 A 
ATOM   1777  N1  A   B   4      -6.291  29.294  58.301  0.00  0.00    +0.000 NA
ATOM   1778  C2  A   B   4      -7.625  29.250  58.443  0.00  0.00    +0.000 A 
ATOM   1779  N3  A   B   4      -8.365  28.425  59.173  0.00  0.00    +0.000 NA
ATOM   1780  C4  A   B   4      -7.585  27.544  59.827  0.00  0.00    +0.000 A 
BRANCH17761781
ATOM   1781  N6  A   B   4      -4.215  28.434  58.833  0.00  0.00    +0.000 N 
ATOM   1782  H   A   B   4      -3.800  29.112  58.252  0.00  0.00    +0.000 HD
ATOM   1783  H   A   B   4      -3.651  27.783  59.311  0.00  0.00    +0.000 HD
ENDBRANCH17761781
ENDBRANCH17711772
BRANCH17701784
ATOM   1784  O2' A   B   4     -11.465  25.718  59.965  0.00  0.00    +0.000 OA
ATOM   1785  H   A   B   4     -11.822  25.579  60.856  0.00  0.00    +0.000 HD
ENDBRANCH17701784
BRANCH17671786
ATOM   1786  C5' A   B   4      -9.289  23.103  62.793  0.00  0.00    +0.000 C 
BRANCH17861787
ATOM   1787  O5' A   B   4      -7.903  23.023  62.491  0.00  0.00    +0.000 OA
BRANCH17871788
ATOM   1788  P   A   B   4      -6.918  22.195  63.430  0.00  0.00    +0.000 P 
ATOM   1789  OP2 A   B   4      -5.532  22.391  62.924  0.00  0.00    +0.000 OA
BRANCH17881790
ATOM   1790  OP1 A   B   4      -7.459  20.822  63.588  0.00  0.00    +0.000 OA
ATOM   1791  H   A   B   4      -7.382  20.345  62.747  0.00  0.00    +0.000 HD
ENDBRANCH17881790
BRANCH17881792
ATOM   1792  O3' A   B   3      -7.058  22.971  64.852  0.00  0.00    +0.000 OA
BRANCH17921795
ATOM   1793  C4' A   B   3      -6.037  24.401  66.545  0.00  0.00    +0.000 C 
ATOM   1794  O4' A   B   3      -5.801  25.827  66.634  0.00  0.00    +0.000 OA
ATOM   1795  C3' A   B   3      -6.366  24.191  65.082  0.00  0.00    +0.000 C 
ATOM   1796  C2' A   B   3      -7.189  25.429  64.760  0.00  0.00    +0.000 C 
ATOM   1797  C1' A   B   3      -6.438  26.490  65.556  0.00  0.00    +0.000 C 
BRANCH17971798
ATOM   1798  N9  A   B   3      -5.420  27.167  64.740  0.00  0.00    +0.000 N 
ATOM   1799  C8  A   B   3      -4.067  26.953  64.726  0.00  0.00    +0.000 A 
ATOM   1800  N7  A   B   3      -3.423  27.721  63.883  0.00  0.00    +0.000 NA
ATOM   1801  C5  A   B   3      -4.423  28.490  63.300  0.00  0.00    +0.000 A 
ATOM   1802  C6  A   B   3      -4.394  29.501  62.322  0.00  0.00    +0.000 A 
ATOM   1803  N1  A   B   3      -5.564  30.065  61.966  0.00  0.00    +0.000 NA
ATOM   1804  C2  A   B   3      -6.687  29.635  62.562  0.00  0.00    +0.000 A 
ATOM   1805  N3  A   B   3      -6.840  28.698  63.492  0.00  0.00    +0.000 NA
ATOM   1806  C4  A   B   3      -5.652  28.159  63.817  0.00  0.00    +0.000 A 
BRANCH18021807
ATOM   1807  N6  A   B   3      -3.272  29.925  61.729  0.00  0.00    +0.000 N 
ATOM   1808  H   A   B   3      -3.313  30.637  61.050  0.00  0.00    +0.000 HD
ATOM   1809  H   A   B   3      -2.406  29.525  61.971  0.00  0.00    +0.000 HD
ENDBRANCH18021807
ENDBRANCH17971798
BRANCH17961810
ATOM   1810  O2' A   B   3      -8.511  25.324  65.253  0.00  0.00    +0.000 OA
ATOM   1811  H   A   B   3      -8.488  25.154  66.208  0.00  0.00    +0.000 HD
ENDBRANCH17961810
BRANCH17931812
ATOM   1812  C5' A   B   3      -4.843  23.651  67.073  0.00  0.00    +0.000 C 
BRANCH18121813
ATOM   1813  O5' A   B   3      -3.681  23.922  66.297  0.00  0.00    +0.000 OA
BRANCH18131814
ATOM   1814  P   A   B   3      -2.241  23.483  66.820  0.00  0.00    +0.000 P 
ATOM   1815  OP2 A   B   3      -1.233  23.973  65.848  0.00  0.00    +0.000 OA
BRANCH18141816
ATOM   1816  OP1 A   B   3      -2.286  22.042  67.180  0.00  0.00    +0.000 OA
ATOM   1817  H   A   B   3      -2.378  21.510  66.374  0.00  0.00    +0.000 HD
ENDBRANCH18141816
BRANCH18141818
ATOM   1818  O3' U   B   2      -2.087  24.346  68.186  0.00  0.00    +0.000 OA
BRANCH18181821
ATOM   1819  C4' U   B   2      -0.888  26.219  69.190  0.00  0.00    +0.000 C 
ATOM   1820  O4' U   B   2      -1.152  27.640  69.287  0.00  0.00    +0.000 OA
ATOM   1821  C3' U   B   2      -1.849  25.750  68.122  0.00  0.00    +0.000 C 
ATOM   1822  C2' U   B   2      -3.086  26.591  68.412  0.00  0.00    +0.000 C 
ATOM   1823  C1' U   B   2      -2.446  27.925  68.789  0.00  0.00    +0.000 C 
BRANCH18231824
ATOM   1824  N1  U   B   2      -2.334  28.835  67.628  0.00  0.00    +0.000 N 
ATOM   1825  C2  U   B   2      -3.472  29.519  67.238  0.00  0.00    +0.000 A 
ATOM   1826  O2  U   B   2      -4.546  29.399  67.806  0.00  0.00    +0.000 OA
ATOM   1827  N3  U   B   2      -3.312  30.352  66.155  0.00  0.00    +0.000 N 
ATOM   1828  C4  U   B   2      -2.151  30.566  65.438  0.00  0.00    +0.000 A 
ATOM   1829  O4  U   B   2      -2.163  31.345  64.489  0.00  0.00    +0.000 OA
ATOM   1830  C5  U   B   2      -1.022  29.825  65.906  0.00  0.00    +0.000 A 
ATOM   1831  C6  U   B   2      -1.146  29.005  66.960  0.00  0.00    +0.000 A 
ATOM   1832  H   U   B   2      -4.109  30.848  65.860  0.00  0.00    +0.000 HD
ENDBRANCH18231824
BRANCH18221833
ATOM   1833  O2' U   B   2      -3.811  26.094  69.522  0.00  0.00    +0.000 OA
ATOM   1834  H   U   B   2      -3.227  26.046  70.295  0.00  0.00    +0.000 HD
ENDBRANCH18221833
BRANCH18191835
ATOM   1835  C5' U   B   2       0.572  25.982  68.898  0.00  0.00    +0.000 C 
BRANCH18351836
ATOM   1836  O5' U   B   2       0.908  26.436  67.590  0.00  0.00    +0.000 OA
BRANCH18361837
ATOM   1837  P   U   B   2       2.408  26.350  67.055  0.00  0.00    +0.000 P 
ATOM   1838  OP2 U   B   2       2.445  26.936  65.690  0.00  0.00    +0.000 OA
BRANCH18371839
ATOM   1839  OP1 U   B   2       2.913  24.969  67.275  0.00  0.00    +0.000 OA
ATOM   1840  H   U   B   2       2.448  24.357  66.684  0.00  0.00    +0.000 HD
ENDBRANCH18371839
BRANCH18371841
ATOM   1841  O3' C   B   1       3.234  27.342  68.086  0.00  0.00    +0.000 OA
BRANCH18411844
ATOM   1842  C4' C   B   1       4.277  29.541  68.145  0.00  0.00    +0.000 C 
ATOM   1843  O4' C   B   1       3.836  30.851  68.588  0.00  0.00    +0.000 OA
ATOM   1844  C3' C   B   1       2.997  28.747  68.015  0.00  0.00    +0.000 C 
ATOM   1845  C2' C   B   1       2.165  29.279  69.163  0.00  0.00    +0.000 C 
ATOM   1846  C1' C   B   1       2.541  30.756  69.148  0.00  0.00    +0.000 C 
BRANCH18461847
ATOM   1847  N1  C   B   1       1.617  31.592  68.355  0.00  0.00    +0.000 N 
ATOM   1848  C2  C   B   1       0.343  31.861  68.849  0.00  0.00    +0.000 A 
ATOM   1849  O2  C   B   1       0.003  31.392  69.952  0.00  0.00    +0.000 OA
ATOM   1850  N3  C   B   1      -0.508  32.632  68.126  0.00  0.00    +0.000 NA
ATOM   1851  C4  C   B   1      -0.117  33.122  66.948  0.00  0.00    +0.000 A 
ATOM   1852  N4  C   B   1      -0.979  33.883  66.274  0.00  0.00    +0.000 N 
ATOM   1853  C5  C   B   1       1.174  32.863  66.418  0.00  0.00    +0.000 A 
ATOM   1854  C6  C   B   1       2.002  32.100  67.148  0.00  0.00    +0.000 A 
ATOM   1855  H   C   B   1      -0.724  34.261  65.402  0.00  0.00    +0.000 HD
ATOM   1856  H   C   B   1      -1.871  34.067  66.649  0.00  0.00    +0.000 HD
ENDBRANCH18461847
BRANCH18451857
ATOM   1857  O2' C   B   1       2.555  28.701  70.389  0.00  0.00    +0.000 OA
ATOM   1858  H   C   B   1       3.502  28.855  70.532  0.00  0.00    +0.000 HD
ENDBRANCH18451857
BRANCH18421859
ATOM   1859  C5' C   B   1       5.072  29.680  66.876  0.00  0.00    +0.000 C 
BRANCH18591860
ATOM   1860  O5' C   B   1       4.248  30.159  65.824  0.00  0.00    +0.000 OA
BRANCH18601861
ATOM   1861  P   C   B   1       4.740  30.255  64.307  0.00  0.00    +0.000 P 
ATOM   1862  OP2 C   B   1       3.559  30.716  63.543  0.00  0.00    +0.000 OA
BRANCH18611863
ATOM   1863  OP1 C   B   1       5.188  28.928  63.904  0.00  0.00    +0.000 OA
ATOM   1864  H   C   B   1       5.494  28.956  62.984  0.00  0.00    +0.000 HD
ENDBRANCH18611863
BRANCH18611865
ATOM   1865  OP3 C   B   1       5.550  31.143  64.068  0.00  0.00    +0.000 OA
ATOM   1866  H   C   B   1       5.786  31.121  63.127  0.00  0.00    +0.000 HD
ENDBRANCH18611865
ENDBRANCH18601861
ENDBRANCH18591860
ENDBRANCH18421859
ENDBRANCH18411844
ENDBRANCH18371841
ENDBRANCH18361837
ENDBRANCH18351836
ENDBRANCH18191835
ENDBRANCH18181821
ENDBRANCH18141818
ENDBRANCH18131814
ENDBRANCH18121813
ENDBRANCH17931812
ENDBRANCH17921795
ENDBRANCH17881792
ENDBRANCH17871788
ENDBRANCH17861787
ENDBRANCH17671786
ENDBRANCH17661769
ENDBRANCH17621766
ENDBRANCH17611762
ENDBRANCH17601761
ENDBRANCH17441760
ENDBRANCH17431746
ENDBRANCH17391743
ENDBRANCH17381739
ENDBRANCH17371738
ENDBRANCH17181737
ENDBRANCH17171720
ENDBRANCH17131717
ENDBRANCH17121713
ENDBRANCH17111712
ENDBRANCH16941711
ENDBRANCH16931696
ENDBRANCH16891693
ENDBRANCH16881689
ENDBRANCH16871688
ENDBRANCH16711687
ENDBRANCH16701673
ENDBRANCH16661670
ENDBRANCH16651666
ENDBRANCH16641665
ENDBRANCH   11664
TORSDOF 355
