REMARK  Name = /storage/kiran-stuff/aaRS/phase2/energy_scoring/vina_182jobs/deep_editing_pro_THR/ligand.h.pdb
REMARK  6 active torsions:
REMARK  status: ('A' for Active; 'I' for Inactive)
REMARK    1  A    between atoms: N_1  and  CA_2
REMARK    2  A    between atoms: CA_2  and  C_3
REMARK    3  A    between atoms: CA_2  and  CB_5
REMARK    4  A    between atoms: C_3  and  O_4
REMARK    5  A    between atoms: CB_5  and  OG1_6
REMARK    6  A    between atoms: CB_5  and  CG2_7
REMARK                            x       y       z     vdW  Elec       q    Type
REMARK                         _______ _______ _______ _____ _____    ______ ____
ROOT
ATOM      1  CA  THR L   1      -9.086  39.850  69.559  0.00  0.00    +0.000 C 
ENDROOT
BRANCH   1   2
ATOM      2  N   THR L   1      -7.679  39.495  69.478  0.00  0.00    +0.000 NA
ATOM      3  H   THR L   1      -7.149  40.287  69.115  0.00  0.00    +0.000 HD
ATOM      4  H   THR L   1      -7.565  38.695  68.855  0.00  0.00    +0.000 HD
ENDBRANCH   1   2
BRANCH   1   5
ATOM      5  C   THR L   1      -9.929  38.715  70.092  0.00  0.00    +0.000 C 
ATOM      6  OXT THR L   1     -11.160  38.757  70.008  0.00  0.00    +0.000 OA
BRANCH   5   7
ATOM      7  O   THR L   1      -9.377  37.831  70.710  0.00  0.00    +0.000 OA
ATOM      8  H   THR L   1      -8.442  37.812  70.765  0.00  0.00    +0.000 HD
ENDBRANCH   5   7
ENDBRANCH   1   5
BRANCH   1   9
ATOM      9  CB  THR L   1      -9.580  40.270  68.189  0.00  0.00    +0.000 C 
ATOM     10  CG2 THR L   1      -9.469  39.166  67.235  0.00  0.00    +0.000 C 
BRANCH   9  11
ATOM     11  OG1 THR L   1      -8.810  41.395  67.796  0.00  0.00    +0.000 OA
ATOM     12  H   THR L   1      -7.871  41.152  67.773  0.00  0.00    +0.000 HD
ENDBRANCH   9  11
ENDBRANCH   1   9
TORSDOF 5
