REMARK  Name = /storage/kiran-stuff/aaRS/phase2/energy_scoring/vina_182jobs/deep_editing_pro_THR/ligand.h.pdb
REMARK  6 active torsions:
REMARK  status: ('A' for Active; 'I' for Inactive)
REMARK    1  A    between atoms: N_1  and  CA_2
REMARK    2  A    between atoms: CA_2  and  C_3
REMARK    3  A    between atoms: CA_2  and  CB_5
REMARK    4  A    between atoms: C_3  and  O_4
REMARK    5  A    between atoms: CB_5  and  OG1_6
REMARK    6  A    between atoms: CB_5  and  CG2_7
REMARK                            x       y       z     vdW  Elec       q    Type
REMARK                         _______ _______ _______ _____ _____    ______ ____
ROOT
ATOM      1  CA  THR L   1      -9.554  46.899  67.915  0.00  0.00    +0.000 C 
ENDROOT
BRANCH   1   2
ATOM      2  N   THR L   1      -8.180  46.951  67.443  0.00  0.00    +0.000 NA
ATOM      3  H   THR L   1      -8.167  47.255  66.470  0.00  0.00    +0.000 HD
ATOM      4  H   THR L   1      -7.760  46.025  67.516  0.00  0.00    +0.000 HD
ENDBRANCH   1   2
BRANCH   1   5
ATOM      5  C   THR L   1      -9.643  46.455  69.357  0.00  0.00    +0.000 C 
ATOM      6  OXT THR L   1      -9.212  45.350  69.698  0.00  0.00    +0.000 OA
BRANCH   5   7
ATOM      7  O   THR L   1     -10.256  47.152  70.136  0.00  0.00    +0.000 OA
ATOM      8  H   THR L   1     -10.577  47.988  69.862  0.00  0.00    +0.000 HD
ENDBRANCH   5   7
ENDBRANCH   1   5
BRANCH   1   9
ATOM      9  CB  THR L   1     -10.357  45.968  67.030  0.00  0.00    +0.000 C 
ATOM     10  CG2 THR L   1     -11.767  45.965  67.421  0.00  0.00    +0.000 C 
BRANCH   9  11
ATOM     11  OG1 THR L   1      -9.769  44.681  67.139  0.00  0.00    +0.000 OA
ATOM     12  H   THR L   1      -9.792  44.393  68.066  0.00  0.00    +0.000 HD
ENDBRANCH   9  11
ENDBRANCH   1   9
TORSDOF 5
