REMARK  Name = /storage/kiran-stuff/aaRS/phase2/energy_scoring/vina_182jobs/fulllength_deep_thr_THR/ligand.h.pdb
REMARK  6 active torsions:
REMARK  status: ('A' for Active; 'I' for Inactive)
REMARK    1  A    between atoms: N_1  and  CA_2
REMARK    2  A    between atoms: CA_2  and  C_3
REMARK    3  A    between atoms: CA_2  and  CB_5
REMARK    4  A    between atoms: C_3  and  OXT_8
REMARK    5  A    between atoms: CB_5  and  OG1_6
REMARK    6  A    between atoms: CB_5  and  CG2_7
REMARK                            x       y       z     vdW  Elec       q    Type
REMARK                         _______ _______ _______ _____ _____    ______ ____
ROOT
ATOM      1  CA  THR C   1       2.163  37.425 -28.502  0.00  0.00    +0.000 C 
ENDROOT
BRANCH   1   2
ATOM      2  N   THR C   1       3.479  38.013 -28.693  0.00  0.00    +0.000 NA
ATOM      3  H   THR C   1       3.585  38.300 -29.666  0.00  0.00    +0.000 HD
ATOM      4  H   THR C   1       4.196  37.325 -28.462  0.00  0.00    +0.000 HD
ENDBRANCH   1   2
BRANCH   1   5
ATOM      5  C   THR C   1       1.942  36.977 -27.077  0.00  0.00    +0.000 C 
ATOM      6  O   THR C   1       0.783  36.863 -26.665  0.00  0.00    +0.000 OA
BRANCH   5   7
ATOM      7  OXT THR C   1       2.923  36.738 -26.363  0.00  0.00    +0.000 OA
ATOM      8  H   THR C   1       3.789  36.835 -26.708  0.00  0.00    +0.000 HD
ENDBRANCH   5   7
ENDBRANCH   1   5
BRANCH   1   9
ATOM      9  CB  THR C   1       1.992  36.252 -29.449  0.00  0.00    +0.000 C 
ATOM     10  CG2 THR C   1       2.065  36.710 -30.886  0.00  0.00    +0.000 C 
BRANCH   9  11
ATOM     11  OG1 THR C   1       2.998  35.317 -29.156  0.00  0.00    +0.000 OA
ATOM     12  H   THR C   1       3.868  35.730 -29.276  0.00  0.00    +0.000 HD
ENDBRANCH   9  11
ENDBRANCH   1   9
TORSDOF 5
