REMARK  Name = /storage/kiran-stuff/aaRS/phase2/energy_scoring/vina_182jobs/fulllength_deep_thr_THR/ligand.h.pdb
REMARK  6 active torsions:
REMARK  status: ('A' for Active; 'I' for Inactive)
REMARK    1  A    between atoms: N_1  and  CA_2
REMARK    2  A    between atoms: CA_2  and  C_3
REMARK    3  A    between atoms: CA_2  and  CB_5
REMARK    4  A    between atoms: C_3  and  OXT_8
REMARK    5  A    between atoms: CB_5  and  OG1_6
REMARK    6  A    between atoms: CB_5  and  CG2_7
REMARK                            x       y       z     vdW  Elec       q    Type
REMARK                         _______ _______ _______ _____ _____    ______ ____
ROOT
ATOM      1  CA  THR C   1       1.456  36.625 -27.846  0.00  0.00    +0.000 C 
ENDROOT
BRANCH   1   2
ATOM      2  N   THR C   1       2.016  37.928 -28.168  0.00  0.00    +0.000 NA
ATOM      3  H   THR C   1       1.752  38.185 -29.119  0.00  0.00    +0.000 HD
ATOM      4  H   THR C   1       3.033  37.888 -28.096  0.00  0.00    +0.000 HD
ENDBRANCH   1   2
BRANCH   1   5
ATOM      5  C   THR C   1       1.811  36.183 -26.447  0.00  0.00    +0.000 C 
ATOM      6  O   THR C   1       1.102  35.336 -25.895  0.00  0.00    +0.000 OA
BRANCH   5   7
ATOM      7  OXT THR C   1       2.798  36.680 -25.892  0.00  0.00    +0.000 OA
ATOM      8  H   THR C   1       3.315  37.321 -26.340  0.00  0.00    +0.000 HD
ENDBRANCH   5   7
ENDBRANCH   1   5
BRANCH   1   9
ATOM      9  CB  THR C   1       1.945  35.602 -28.855  0.00  0.00    +0.000 C 
ATOM     10  CG2 THR C   1       2.097  36.229 -30.220  0.00  0.00    +0.000 C 
BRANCH   9  11
ATOM     11  OG1 THR C   1       3.165  35.090 -28.386  0.00  0.00    +0.000 OA
ATOM     12  H   THR C   1       3.806  35.814 -28.294  0.00  0.00    +0.000 HD
ENDBRANCH   9  11
ENDBRANCH   1   9
TORSDOF 5
