REMARK  Name = /storage/kiran-stuff/aaRS/phase2/energy_scoring/vina_182jobs/fulllength_deep_thr_THR/ligand.h.pdb
REMARK  611 active torsions:
REMARK  status: ('A' for Active; 'I' for Inactive)
REMARK    1  A    between atoms: OP3_1  and  P_2
REMARK    2  A    between atoms: P_2  and  OP2_4
REMARK    3  A    between atoms: P_2  and  O5'_5
REMARK    4  A    between atoms: O5'_5  and  C5'_6
REMARK    5  A    between atoms: C5'_6  and  C4'_7
REMARK    6  A    between atoms: C3'_9  and  O3'_10
REMARK    7  A    between atoms: O3'_10  and  P_22
REMARK    8  A    between atoms: C2'_11  and  O2'_12
REMARK    9  A    between atoms: C1'_13  and  N1_14
REMARK   10  A    between atoms: P_22  and  OP1_23
REMARK   11  A    between atoms: P_22  and  O5'_25
REMARK   12  A    between atoms: O5'_25  and  C5'_26
REMARK   13  A    between atoms: C5'_26  and  C4'_27
REMARK   14  A    between atoms: C3'_29  and  O3'_30
REMARK   15  A    between atoms: O3'_30  and  P_42
REMARK   16  A    between atoms: C2'_31  and  O2'_32
REMARK   17  A    between atoms: C1'_33  and  N1_34
REMARK   18  A    between atoms: P_42  and  OP2_44
REMARK   19  A    between atoms: P_42  and  O5'_45
REMARK   20  A    between atoms: O5'_45  and  C5'_46
REMARK   21  A    between atoms: C5'_46  and  C4'_47
REMARK   22  A    between atoms: C3'_49  and  O3'_50
REMARK   23  A    between atoms: O3'_50  and  P_64
REMARK   24  A    between atoms: C2'_51  and  O2'_52
REMARK   25  A    between atoms: C1'_53  and  N9_54
REMARK   26  A    between atoms: P_64  and  OP2_66
REMARK   27  A    between atoms: P_64  and  O5'_67
REMARK   28  A    between atoms: O5'_67  and  C5'_68
REMARK   29  A    between atoms: C5'_68  and  C4'_69
REMARK   30  A    between atoms: C3'_71  and  O3'_72
REMARK   31  A    between atoms: O3'_72  and  P_86
REMARK   32  A    between atoms: C2'_73  and  O2'_74
REMARK   33  A    between atoms: C1'_75  and  N9_76
REMARK   34  A    between atoms: P_86  and  OP1_87
REMARK   35  A    between atoms: P_86  and  O5'_89
REMARK   36  A    between atoms: O5'_89  and  C5'_90
REMARK   37  A    between atoms: C5'_90  and  C4'_91
REMARK   38  A    between atoms: C3'_93  and  O3'_94
REMARK   39  A    between atoms: O3'_94  and  P_106
REMARK   40  A    between atoms: C2'_95  and  O2'_96
REMARK   41  A    between atoms: C1'_97  and  N1_98
REMARK   42  A    between atoms: P_106  and  OP1_107
REMARK   43  A    between atoms: P_106  and  O5'_109
REMARK   44  A    between atoms: O5'_109  and  C5'_110
REMARK   45  A    between atoms: C5'_110  and  C4'_111
REMARK   46  A    between atoms: C3'_113  and  O3'_114
REMARK   47  A    between atoms: O3'_114  and  P_128
REMARK   48  A    between atoms: C2'_115  and  O2'_116
REMARK   49  A    between atoms: C1'_117  and  N9_118
REMARK   50  A    between atoms: C6_122  and  N6_123
REMARK   51  A    between atoms: P_128  and  OP1_129
REMARK   52  A    between atoms: P_128  and  O5'_131
REMARK   53  A    between atoms: O5'_131  and  C5'_132
REMARK   54  A    between atoms: C5'_132  and  C4'_133
REMARK   55  A    between atoms: C3'_135  and  O3'_136
REMARK   56  A    between atoms: O3'_136  and  P_148
REMARK   57  A    between atoms: C2'_137  and  O2'_138
REMARK   58  A    between atoms: C1'_139  and  N1_140
REMARK   59  A    between atoms: P_148  and  OP1_149
REMARK   60  A    between atoms: P_148  and  O5'_151
REMARK   61  A    between atoms: O5'_151  and  C5'_152
REMARK   62  A    between atoms: C5'_152  and  C4'_153
REMARK   63  A    between atoms: C3'_155  and  O3'_156
REMARK   64  A    between atoms: O3'_156  and  P_168
REMARK   65  A    between atoms: C2'_157  and  O2'_158
REMARK   66  A    between atoms: C1'_159  and  N1_160
REMARK   67  A    between atoms: P_168  and  OP1_169
REMARK   68  A    between atoms: P_168  and  O5'_171
REMARK   69  A    between atoms: O5'_171  and  C5'_172
REMARK   70  A    between atoms: C5'_172  and  C4'_173
REMARK   71  A    between atoms: C3'_175  and  O3'_176
REMARK   72  A    between atoms: O3'_176  and  P_190
REMARK   73  A    between atoms: C2'_177  and  O2'_178
REMARK   74  A    between atoms: C1'_179  and  N9_180
REMARK   75  A    between atoms: C6_184  and  N6_185
REMARK   76  A    between atoms: P_190  and  OP1_191
REMARK   77  A    between atoms: P_190  and  O5'_193
REMARK   78  A    between atoms: O5'_193  and  C5'_194
REMARK   79  A    between atoms: C5'_194  and  C4'_195
REMARK   80  A    between atoms: C3'_197  and  O3'_198
REMARK   81  A    between atoms: O3'_198  and  P_210
REMARK   82  A    between atoms: C2'_199  and  O2'_200
REMARK   83  A    between atoms: C1'_201  and  N1_202
REMARK   84  A    between atoms: P_210  and  OP2_212
REMARK   85  A    between atoms: P_210  and  O5'_213
REMARK   86  A    between atoms: O5'_213  and  C5'_214
REMARK   87  A    between atoms: C5'_214  and  C4'_215
REMARK   88  A    between atoms: C3'_217  and  O3'_218
REMARK   89  A    between atoms: O3'_218  and  P_230
REMARK   90  A    between atoms: C2'_219  and  O2'_220
REMARK   91  A    between atoms: C1'_221  and  N1_222
REMARK   92  A    between atoms: P_230  and  OP2_232
REMARK   93  A    between atoms: P_230  and  O5'_233
REMARK   94  A    between atoms: O5'_233  and  C5'_234
REMARK   95  A    between atoms: C5'_234  and  C4'_235
REMARK   96  A    between atoms: C3'_237  and  O3'_238
REMARK   97  A    between atoms: O3'_238  and  P_250
REMARK   98  A    between atoms: C2'_239  and  O2'_240
REMARK   99  A    between atoms: C1'_241  and  N1_242
REMARK  100  A    between atoms: P_250  and  OP2_252
REMARK  101  A    between atoms: P_250  and  O5'_253
REMARK  102  A    between atoms: O5'_253  and  C5'_254
REMARK  103  A    between atoms: C5'_254  and  C4'_255
REMARK  104  A    between atoms: C3'_257  and  O3'_258
REMARK  105  A    between atoms: O3'_258  and  P_270
REMARK  106  A    between atoms: C2'_259  and  O2'_260
REMARK  107  A    between atoms: C1'_261  and  N1_262
REMARK  108  A    between atoms: P_270  and  OP2_272
REMARK  109  A    between atoms: P_270  and  O5'_273
REMARK  110  A    between atoms: O5'_273  and  C5'_274
REMARK  111  A    between atoms: C5'_274  and  C4'_275
REMARK  112  A    between atoms: C3'_277  and  O3'_278
REMARK  113  A    between atoms: O3'_278  and  P_292
REMARK  114  A    between atoms: C2'_279  and  O2'_280
REMARK  115  A    between atoms: C1'_281  and  N9_282
REMARK  116  A    between atoms: P_292  and  OP2_294
REMARK  117  A    between atoms: P_292  and  O5'_295
REMARK  118  A    between atoms: O5'_295  and  C5'_296
REMARK  119  A    between atoms: C5'_296  and  C4'_297
REMARK  120  A    between atoms: C1'_303  and  N1_304
REMARK  121  A    between atoms: P_312  and  OP1_313
REMARK  122  A    between atoms: C3'_319  and  O3'_320
REMARK  123  A    between atoms: O3'_320  and  P_332
REMARK  124  A    between atoms: C2'_321  and  O2'_322
REMARK  125  A    between atoms: P_332  and  OP1_333
REMARK  126  A    between atoms: P_332  and  O5'_335
REMARK  127  A    between atoms: O5'_335  and  C5'_336
REMARK  128  A    between atoms: C5'_336  and  C4'_337
REMARK  129  A    between atoms: C3'_339  and  O3'_340
REMARK  130  A    between atoms: O3'_340  and  P_352
REMARK  131  A    between atoms: C2'_341  and  O2'_342
REMARK  132  A    between atoms: C1'_343  and  N1_344
REMARK  133  A    between atoms: P_352  and  OP2_354
REMARK  134  A    between atoms: P_352  and  O5'_355
REMARK  135  A    between atoms: O5'_355  and  C5'_356
REMARK  136  A    between atoms: C5'_356  and  C4'_357
REMARK  137  A    between atoms: C3'_359  and  O3'_360
REMARK  138  A    between atoms: O3'_360  and  P_375
REMARK  139  A    between atoms: C2'_361  and  O2'_362
REMARK  140  A    between atoms: C1'_363  and  N9_364
REMARK  141  A    between atoms: P_375  and  OP2_377
REMARK  142  A    between atoms: P_375  and  O5'_378
REMARK  143  A    between atoms: O5'_378  and  C5'_379
REMARK  144  A    between atoms: C5'_379  and  C4'_380
REMARK  145  A    between atoms: C3'_382  and  O3'_383
REMARK  146  A    between atoms: O3'_383  and  P_397
REMARK  147  A    between atoms: C2'_384  and  O2'_385
REMARK  148  A    between atoms: C1'_386  and  N9_387
REMARK  149  A    between atoms: P_397  and  OP2_399
REMARK  150  A    between atoms: P_397  and  O5'_400
REMARK  151  A    between atoms: O5'_400  and  C5'_401
REMARK  152  A    between atoms: C5'_401  and  C4'_402
REMARK  153  A    between atoms: C3'_404  and  O3'_405
REMARK  154  A    between atoms: O3'_405  and  P_419
REMARK  155  A    between atoms: C2'_406  and  O2'_407
REMARK  156  A    between atoms: C1'_408  and  N9_409
REMARK  157  A    between atoms: P_419  and  OP2_421
REMARK  158  A    between atoms: P_419  and  O5'_422
REMARK  159  A    between atoms: O5'_422  and  C5'_423
REMARK  160  A    between atoms: C5'_423  and  C4'_424
REMARK  161  A    between atoms: C3'_426  and  O3'_427
REMARK  162  A    between atoms: O3'_427  and  P_441
REMARK  163  A    between atoms: C2'_428  and  O2'_429
REMARK  164  A    between atoms: C1'_430  and  N9_431
REMARK  165  A    between atoms: P_441  and  OP2_443
REMARK  166  A    between atoms: P_441  and  O5'_444
REMARK  167  A    between atoms: O5'_444  and  C5'_445
REMARK  168  A    between atoms: C5'_445  and  C4'_446
REMARK  169  A    between atoms: C3'_448  and  O3'_449
REMARK  170  A    between atoms: O3'_449  and  P_461
REMARK  171  A    between atoms: C2'_450  and  O2'_451
REMARK  172  A    between atoms: C1'_452  and  N1_453
REMARK  173  A    between atoms: P_461  and  OP2_463
REMARK  174  A    between atoms: P_461  and  O5'_464
REMARK  175  A    between atoms: O5'_464  and  C5'_465
REMARK  176  A    between atoms: C5'_465  and  C4'_466
REMARK  177  A    between atoms: C3'_468  and  O3'_469
REMARK  178  A    between atoms: O3'_469  and  P_481
REMARK  179  A    between atoms: C2'_470  and  O2'_471
REMARK  180  A    between atoms: C1'_472  and  N1_473
REMARK  181  A    between atoms: P_481  and  OP1_482
REMARK  182  A    between atoms: P_481  and  O5'_484
REMARK  183  A    between atoms: O5'_484  and  C5'_485
REMARK  184  A    between atoms: C5'_485  and  C4'_486
REMARK  185  A    between atoms: C3'_488  and  O3'_489
REMARK  186  A    between atoms: O3'_489  and  P_501
REMARK  187  A    between atoms: C2'_490  and  O2'_491
REMARK  188  A    between atoms: C1'_492  and  N1_493
REMARK  189  A    between atoms: P_501  and  OP1_502
REMARK  190  A    between atoms: P_501  and  O5'_504
REMARK  191  A    between atoms: O5'_504  and  C5'_505
REMARK  192  A    between atoms: C5'_505  and  C4'_506
REMARK  193  A    between atoms: C3'_508  and  O3'_509
REMARK  194  A    between atoms: O3'_509  and  P_521
REMARK  195  A    between atoms: C2'_510  and  O2'_511
REMARK  196  A    between atoms: C1'_512  and  N1_513
REMARK  197  A    between atoms: P_521  and  OP1_522
REMARK  198  A    between atoms: P_521  and  O5'_524
REMARK  199  A    between atoms: O5'_524  and  C5'_525
REMARK  200  A    between atoms: C5'_525  and  C4'_526
REMARK  201  A    between atoms: C3'_528  and  O3'_529
REMARK  202  A    between atoms: O3'_529  and  P_541
REMARK  203  A    between atoms: C2'_530  and  O2'_531
REMARK  204  A    between atoms: C1'_532  and  N1_533
REMARK  205  A    between atoms: P_541  and  OP2_543
REMARK  206  A    between atoms: P_541  and  O5'_544
REMARK  207  A    between atoms: O5'_544  and  C5'_545
REMARK  208  A    between atoms: C5'_545  and  C4'_546
REMARK  209  A    between atoms: C3'_548  and  O3'_549
REMARK  210  A    between atoms: O3'_549  and  P_561
REMARK  211  A    between atoms: C2'_550  and  O2'_551
REMARK  212  A    between atoms: C1'_552  and  N1_553
REMARK  213  A    between atoms: P_561  and  OP2_563
REMARK  214  A    between atoms: P_561  and  O5'_564
REMARK  215  A    between atoms: O5'_564  and  C5'_565
REMARK  216  A    between atoms: C5'_565  and  C4'_566
REMARK  217  A    between atoms: C3'_568  and  O3'_569
REMARK  218  A    between atoms: O3'_569  and  P_581
REMARK  219  A    between atoms: C2'_570  and  O2'_571
REMARK  220  A    between atoms: C1'_572  and  N1_573
REMARK  221  A    between atoms: P_581  and  OP2_583
REMARK  222  A    between atoms: P_581  and  O5'_584
REMARK  223  A    between atoms: O5'_584  and  C5'_585
REMARK  224  A    between atoms: C5'_585  and  C4'_586
REMARK  225  A    between atoms: C3'_588  and  O3'_589
REMARK  226  A    between atoms: O3'_589  and  P_603
REMARK  227  A    between atoms: C2'_590  and  O2'_591
REMARK  228  A    between atoms: C1'_592  and  N9_593
REMARK  229  A    between atoms: P_603  and  OP2_605
REMARK  230  A    between atoms: P_603  and  O5'_606
REMARK  231  A    between atoms: O5'_606  and  C5'_607
REMARK  232  A    between atoms: C5'_607  and  C4'_608
REMARK  233  A    between atoms: C3'_610  and  O3'_611
REMARK  234  A    between atoms: O3'_611  and  P_625
REMARK  235  A    between atoms: C2'_612  and  O2'_613
REMARK  236  A    between atoms: C1'_614  and  N9_615
REMARK  237  A    between atoms: P_625  and  OP2_627
REMARK  238  A    between atoms: P_625  and  O5'_628
REMARK  239  A    between atoms: O5'_628  and  C5'_629
REMARK  240  A    between atoms: C5'_629  and  C4'_630
REMARK  241  A    between atoms: C3'_632  and  O3'_633
REMARK  242  A    between atoms: O3'_633  and  P_647
REMARK  243  A    between atoms: C2'_634  and  O2'_635
REMARK  244  A    between atoms: C1'_636  and  N9_637
REMARK  245  A    between atoms: P_647  and  OP2_649
REMARK  246  A    between atoms: P_647  and  O5'_650
REMARK  247  A    between atoms: O5'_650  and  C5'_651
REMARK  248  A    between atoms: C5'_651  and  C4'_652
REMARK  249  A    between atoms: C3'_654  and  O3'_655
REMARK  250  A    between atoms: O3'_655  and  P_669
REMARK  251  A    between atoms: C2'_656  and  O2'_657
REMARK  252  A    between atoms: C1'_658  and  N9_659
REMARK  253  A    between atoms: P_669  and  OP1_670
REMARK  254  A    between atoms: P_669  and  O5'_672
REMARK  255  A    between atoms: O5'_672  and  C5'_673
REMARK  256  A    between atoms: C5'_673  and  C4'_674
REMARK  257  A    between atoms: C3'_676  and  O3'_677
REMARK  258  A    between atoms: O3'_677  and  P_689
REMARK  259  A    between atoms: C2'_678  and  O2'_679
REMARK  260  A    between atoms: C1'_680  and  N1_681
REMARK  261  A    between atoms: P_689  and  OP1_690
REMARK  262  A    between atoms: P_689  and  O5'_692
REMARK  263  A    between atoms: O5'_692  and  C5'_693
REMARK  264  A    between atoms: C5'_693  and  C4'_694
REMARK  265  A    between atoms: C3'_696  and  O3'_697
REMARK  266  A    between atoms: O3'_697  and  P_711
REMARK  267  A    between atoms: C2'_698  and  O2'_699
REMARK  268  A    between atoms: C1'_700  and  N9_701
REMARK  269  A    between atoms: C6_705  and  N6_706
REMARK  270  A    between atoms: P_711  and  OP1_712
REMARK  271  A    between atoms: P_711  and  O5'_714
REMARK  272  A    between atoms: O5'_714  and  C5'_715
REMARK  273  A    between atoms: C5'_715  and  C4'_716
REMARK  274  A    between atoms: C3'_718  and  O3'_719
REMARK  275  A    between atoms: O3'_719  and  P_733
REMARK  276  A    between atoms: C2'_720  and  O2'_721
REMARK  277  A    between atoms: C1'_722  and  N9_723
REMARK  278  A    between atoms: C6_727  and  N6_728
REMARK  279  A    between atoms: P_733  and  OP1_734
REMARK  280  A    between atoms: P_733  and  O5'_736
REMARK  281  A    between atoms: O5'_736  and  C5'_737
REMARK  282  A    between atoms: C5'_737  and  C4'_738
REMARK  283  A    between atoms: C3'_740  and  O3'_741
REMARK  284  A    between atoms: O3'_741  and  P_753
REMARK  285  A    between atoms: C2'_742  and  O2'_743
REMARK  286  A    between atoms: C1'_744  and  N1_745
REMARK  287  A    between atoms: P_753  and  OP1_754
REMARK  288  A    between atoms: P_753  and  O5'_756
REMARK  289  A    between atoms: O5'_756  and  C5'_757
REMARK  290  A    between atoms: C5'_757  and  C4'_758
REMARK  291  A    between atoms: C3'_760  and  O3'_761
REMARK  292  A    between atoms: O3'_761  and  P_775
REMARK  293  A    between atoms: C2'_762  and  O2'_763
REMARK  294  A    between atoms: C1'_764  and  N9_765
REMARK  295  A    between atoms: C6_769  and  N6_770
REMARK  296  A    between atoms: P_775  and  OP2_777
REMARK  297  A    between atoms: P_775  and  O5'_778
REMARK  298  A    between atoms: O5'_778  and  C5'_779
REMARK  299  A    between atoms: C5'_779  and  C4'_780
REMARK  300  A    between atoms: C3'_782  and  O3'_783
REMARK  301  A    between atoms: O3'_783  and  P_795
REMARK  302  A    between atoms: C2'_784  and  O2'_785
REMARK  303  A    between atoms: C1'_786  and  N1_787
REMARK  304  A    between atoms: P_795  and  OP2_797
REMARK  305  A    between atoms: P_795  and  O5'_798
REMARK  306  A    between atoms: O5'_798  and  C5'_799
REMARK  307  A    between atoms: C5'_799  and  C4'_800
REMARK  308  A    between atoms: C3'_802  and  O3'_803
REMARK  309  A    between atoms: O3'_803  and  P_815
REMARK  310  A    between atoms: C2'_804  and  O2'_805
REMARK  311  A    between atoms: C1'_806  and  N1_807
REMARK  312  A    between atoms: P_815  and  OP2_817
REMARK  313  A    between atoms: P_815  and  O5'_818
REMARK  314  A    between atoms: O5'_818  and  C5'_819
REMARK  315  A    between atoms: C5'_819  and  C4'_820
REMARK  316  A    between atoms: C3'_822  and  O3'_823
REMARK  317  A    between atoms: O3'_823  and  P_835
REMARK  318  A    between atoms: C2'_824  and  O2'_825
REMARK  319  A    between atoms: C1'_826  and  N1_827
REMARK  320  A    between atoms: P_835  and  OP1_836
REMARK  321  A    between atoms: P_835  and  O5'_838
REMARK  322  A    between atoms: O5'_838  and  C5'_839
REMARK  323  A    between atoms: C5'_839  and  C4'_840
REMARK  324  A    between atoms: C3'_842  and  O3'_843
REMARK  325  A    between atoms: O3'_843  and  P_855
REMARK  326  A    between atoms: C2'_844  and  O2'_845
REMARK  327  A    between atoms: C1'_846  and  N1_847
REMARK  328  A    between atoms: P_855  and  OP1_856
REMARK  329  A    between atoms: P_855  and  O5'_858
REMARK  330  A    between atoms: O5'_858  and  C5'_859
REMARK  331  A    between atoms: C5'_859  and  C4'_860
REMARK  332  A    between atoms: C3'_862  and  O3'_863
REMARK  333  A    between atoms: O3'_863  and  P_875
REMARK  334  A    between atoms: C2'_864  and  O2'_865
REMARK  335  A    between atoms: C1'_866  and  N1_867
REMARK  336  A    between atoms: P_875  and  OP2_877
REMARK  337  A    between atoms: P_875  and  O5'_878
REMARK  338  A    between atoms: O5'_878  and  C5'_879
REMARK  339  A    between atoms: C5'_879  and  C4'_880
REMARK  340  A    between atoms: C3'_882  and  O3'_883
REMARK  341  A    between atoms: O3'_883  and  P_897
REMARK  342  A    between atoms: C2'_884  and  O2'_885
REMARK  343  A    between atoms: C1'_886  and  N9_887
REMARK  344  A    between atoms: P_897  and  OP2_899
REMARK  345  A    between atoms: P_897  and  O5'_900
REMARK  346  A    between atoms: O5'_900  and  C5'_901
REMARK  347  A    between atoms: C5'_901  and  C4'_902
REMARK  348  A    between atoms: C3'_904  and  O3'_905
REMARK  349  A    between atoms: O3'_905  and  P_917
REMARK  350  A    between atoms: C2'_906  and  O2'_907
REMARK  351  A    between atoms: C1'_908  and  N1_909
REMARK  352  A    between atoms: P_917  and  OP2_919
REMARK  353  A    between atoms: P_917  and  O5'_920
REMARK  354  A    between atoms: O5'_920  and  C5'_921
REMARK  355  A    between atoms: C5'_921  and  C4'_922
REMARK  356  A    between atoms: C3'_924  and  O3'_925
REMARK  357  A    between atoms: O3'_925  and  P_937
REMARK  358  A    between atoms: C2'_926  and  O2'_927
REMARK  359  A    between atoms: C1'_928  and  N1_929
REMARK  360  A    between atoms: P_937  and  OP1_938
REMARK  361  A    between atoms: P_937  and  O5'_940
REMARK  362  A    between atoms: O5'_940  and  C5'_941
REMARK  363  A    between atoms: C5'_941  and  C4'_942
REMARK  364  A    between atoms: C3'_944  and  O3'_945
REMARK  365  A    between atoms: O3'_945  and  P_957
REMARK  366  A    between atoms: C2'_946  and  O2'_947
REMARK  367  A    between atoms: C1'_948  and  N1_949
REMARK  368  A    between atoms: P_957  and  OP1_958
REMARK  369  A    between atoms: P_957  and  O5'_960
REMARK  370  A    between atoms: O5'_960  and  C5'_961
REMARK  371  A    between atoms: C5'_961  and  C4'_962
REMARK  372  A    between atoms: C3'_964  and  O3'_965
REMARK  373  A    between atoms: O3'_965  and  P_977
REMARK  374  A    between atoms: C2'_966  and  O2'_967
REMARK  375  A    between atoms: C1'_968  and  N1_969
REMARK  376  A    between atoms: P_977  and  OP1_978
REMARK  377  A    between atoms: P_977  and  O5'_980
REMARK  378  A    between atoms: O5'_980  and  C5'_981
REMARK  379  A    between atoms: C5'_981  and  C4'_982
REMARK  380  A    between atoms: C3'_984  and  O3'_985
REMARK  381  A    between atoms: O3'_985  and  P_999
REMARK  382  A    between atoms: C2'_986  and  O2'_987
REMARK  383  A    between atoms: C1'_988  and  N9_989
REMARK  384  A    between atoms: C6_993  and  N6_994
REMARK  385  A    between atoms: P_999  and  OP1_1000
REMARK  386  A    between atoms: P_999  and  O5'_1002
REMARK  387  A    between atoms: O5'_1002  and  C5'_1003
REMARK  388  A    between atoms: C5'_1003  and  C4'_1004
REMARK  389  A    between atoms: C3'_1006  and  O3'_1007
REMARK  390  A    between atoms: O3'_1007  and  P_1019
REMARK  391  A    between atoms: C2'_1008  and  O2'_1009
REMARK  392  A    between atoms: C1'_1010  and  N1_1011
REMARK  393  A    between atoms: P_1019  and  OP1_1020
REMARK  394  A    between atoms: P_1019  and  O5'_1022
REMARK  395  A    between atoms: O5'_1022  and  C5'_1023
REMARK  396  A    between atoms: C5'_1023  and  C4'_1024
REMARK  397  A    between atoms: C3'_1026  and  O3'_1027
REMARK  398  A    between atoms: O3'_1027  and  P_1039
REMARK  399  A    between atoms: C2'_1028  and  O2'_1029
REMARK  400  A    between atoms: C1'_1030  and  N1_1031
REMARK  401  A    between atoms: P_1039  and  OP1_1040
REMARK  402  A    between atoms: P_1039  and  O5'_1042
REMARK  403  A    between atoms: O5'_1042  and  C5'_1043
REMARK  404  A    between atoms: C5'_1043  and  C4'_1044
REMARK  405  A    between atoms: C3'_1046  and  O3'_1047
REMARK  406  A    between atoms: O3'_1047  and  P_1059
REMARK  407  A    between atoms: C2'_1048  and  O2'_1049
REMARK  408  A    between atoms: C1'_1050  and  N1_1051
REMARK  409  A    between atoms: P_1059  and  OP2_1061
REMARK  410  A    between atoms: P_1059  and  O5'_1062
REMARK  411  A    between atoms: O5'_1062  and  C5'_1063
REMARK  412  A    between atoms: C5'_1063  and  C4'_1064
REMARK  413  A    between atoms: C3'_1066  and  O3'_1067
REMARK  414  A    between atoms: O3'_1067  and  P_1079
REMARK  415  A    between atoms: C2'_1068  and  O2'_1069
REMARK  416  A    between atoms: C1'_1070  and  N1_1071
REMARK  417  A    between atoms: P_1079  and  OP2_1081
REMARK  418  A    between atoms: P_1079  and  O5'_1082
REMARK  419  A    between atoms: O5'_1082  and  C5'_1083
REMARK  420  A    between atoms: C5'_1083  and  C4'_1084
REMARK  421  A    between atoms: C3'_1086  and  O3'_1087
REMARK  422  A    between atoms: O3'_1087  and  P_1101
REMARK  423  A    between atoms: C2'_1088  and  O2'_1089
REMARK  424  A    between atoms: C1'_1090  and  N9_1091
REMARK  425  A    between atoms: P_1101  and  OP2_1103
REMARK  426  A    between atoms: P_1101  and  O5'_1104
REMARK  427  A    between atoms: O5'_1104  and  C5'_1105
REMARK  428  A    between atoms: C5'_1105  and  C4'_1106
REMARK  429  A    between atoms: C3'_1108  and  O3'_1109
REMARK  430  A    between atoms: O3'_1109  and  P_1123
REMARK  431  A    between atoms: C2'_1110  and  O2'_1111
REMARK  432  A    between atoms: C1'_1112  and  N9_1113
REMARK  433  A    between atoms: P_1123  and  OP2_1125
REMARK  434  A    between atoms: P_1123  and  O5'_1126
REMARK  435  A    between atoms: O5'_1126  and  C5'_1127
REMARK  436  A    between atoms: C5'_1127  and  C4'_1128
REMARK  437  A    between atoms: C3'_1130  and  O3'_1131
REMARK  438  A    between atoms: O3'_1131  and  P_1145
REMARK  439  A    between atoms: C2'_1132  and  O2'_1133
REMARK  440  A    between atoms: C1'_1134  and  N9_1135
REMARK  441  A    between atoms: P_1145  and  OP2_1147
REMARK  442  A    between atoms: P_1145  and  O5'_1148
REMARK  443  A    between atoms: O5'_1148  and  C5'_1149
REMARK  444  A    between atoms: C5'_1149  and  C4'_1150
REMARK  445  A    between atoms: C3'_1152  and  O3'_1153
REMARK  446  A    between atoms: O3'_1153  and  P_1167
REMARK  447  A    between atoms: C2'_1154  and  O2'_1155
REMARK  448  A    between atoms: C1'_1156  and  N9_1157
REMARK  449  A    between atoms: P_1167  and  OP2_1169
REMARK  450  A    between atoms: P_1167  and  O5'_1170
REMARK  451  A    between atoms: O5'_1170  and  C5'_1171
REMARK  452  A    between atoms: C5'_1171  and  C4'_1172
REMARK  453  A    between atoms: C3'_1174  and  O3'_1175
REMARK  454  A    between atoms: O3'_1175  and  P_1189
REMARK  455  A    between atoms: C2'_1176  and  O2'_1177
REMARK  456  A    between atoms: C1'_1178  and  N9_1179
REMARK  457  A    between atoms: P_1189  and  OP2_1191
REMARK  458  A    between atoms: P_1189  and  O5'_1192
REMARK  459  A    between atoms: O5'_1192  and  C5'_1193
REMARK  460  A    between atoms: C5'_1193  and  C4'_1194
REMARK  461  A    between atoms: C3'_1196  and  O3'_1197
REMARK  462  A    between atoms: O3'_1197  and  P_1209
REMARK  463  A    between atoms: C2'_1198  and  O2'_1199
REMARK  464  A    between atoms: C1'_1200  and  N1_1201
REMARK  465  A    between atoms: P_1209  and  OP2_1211
REMARK  466  A    between atoms: P_1209  and  O5'_1212
REMARK  467  A    between atoms: O5'_1212  and  C5'_1213
REMARK  468  A    between atoms: C5'_1213  and  C4'_1214
REMARK  469  A    between atoms: C3'_1216  and  O3'_1217
REMARK  470  A    between atoms: O3'_1217  and  P_1231
REMARK  471  A    between atoms: C2'_1218  and  O2'_1219
REMARK  472  A    between atoms: C1'_1220  and  N9_1221
REMARK  473  A    between atoms: P_1231  and  OP2_1233
REMARK  474  A    between atoms: P_1231  and  O5'_1234
REMARK  475  A    between atoms: O5'_1234  and  C5'_1235
REMARK  476  A    between atoms: C5'_1235  and  C4'_1236
REMARK  477  A    between atoms: C3'_1238  and  O3'_1239
REMARK  478  A    between atoms: O3'_1239  and  P_1254
REMARK  479  A    between atoms: C2'_1240  and  O2'_1241
REMARK  480  A    between atoms: C1'_1242  and  N9_1243
REMARK  481  A    between atoms: P_1254  and  OP2_1256
REMARK  482  A    between atoms: P_1254  and  O5'_1257
REMARK  483  A    between atoms: O5'_1257  and  C5'_1258
REMARK  484  A    between atoms: C5'_1258  and  C4'_1259
REMARK  485  A    between atoms: C3'_1261  and  O3'_1262
REMARK  486  A    between atoms: O3'_1262  and  P_1276
REMARK  487  A    between atoms: C2'_1263  and  O2'_1264
REMARK  488  A    between atoms: C1'_1265  and  N9_1266
REMARK  489  A    between atoms: C6_1270  and  N6_1271
REMARK  490  A    between atoms: P_1276  and  OP2_1278
REMARK  491  A    between atoms: P_1276  and  O5'_1279
REMARK  492  A    between atoms: O5'_1279  and  C5'_1280
REMARK  493  A    between atoms: C5'_1280  and  C4'_1281
REMARK  494  A    between atoms: C3'_1283  and  O3'_1284
REMARK  495  A    between atoms: O3'_1284  and  P_1296
REMARK  496  A    between atoms: C2'_1285  and  O2'_1286
REMARK  497  A    between atoms: C1'_1287  and  N1_1288
REMARK  498  A    between atoms: P_1296  and  OP2_1298
REMARK  499  A    between atoms: P_1296  and  O5'_1299
REMARK  500  A    between atoms: O5'_1299  and  C5'_1300
REMARK  501  A    between atoms: C5'_1300  and  C4'_1301
REMARK  502  A    between atoms: C3'_1303  and  O3'_1304
REMARK  503  A    between atoms: O3'_1304  and  P_1316
REMARK  504  A    between atoms: C2'_1305  and  O2'_1306
REMARK  505  A    between atoms: C1'_1307  and  N1_1308
REMARK  506  A    between atoms: P_1316  and  OP2_1318
REMARK  507  A    between atoms: P_1316  and  O5'_1319
REMARK  508  A    between atoms: O5'_1319  and  C5'_1320
REMARK  509  A    between atoms: C5'_1320  and  C4'_1321
REMARK  510  A    between atoms: C3'_1323  and  O3'_1324
REMARK  511  A    between atoms: O3'_1324  and  P_1338
REMARK  512  A    between atoms: C2'_1325  and  O2'_1326
REMARK  513  A    between atoms: C1'_1327  and  N9_1328
REMARK  514  A    between atoms: C6_1332  and  N6_1333
REMARK  515  A    between atoms: P_1338  and  OP2_1340
REMARK  516  A    between atoms: P_1338  and  O5'_1341
REMARK  517  A    between atoms: O5'_1341  and  C5'_1342
REMARK  518  A    between atoms: C5'_1342  and  C4'_1343
REMARK  519  A    between atoms: C3'_1345  and  O3'_1346
REMARK  520  A    between atoms: O3'_1346  and  P_1358
REMARK  521  A    between atoms: C2'_1347  and  O2'_1348
REMARK  522  A    between atoms: C1'_1349  and  N1_1350
REMARK  523  A    between atoms: P_1358  and  OP2_1360
REMARK  524  A    between atoms: P_1358  and  O5'_1361
REMARK  525  A    between atoms: O5'_1361  and  C5'_1362
REMARK  526  A    between atoms: C5'_1362  and  C4'_1363
REMARK  527  A    between atoms: C3'_1365  and  O3'_1366
REMARK  528  A    between atoms: O3'_1366  and  P_1380
REMARK  529  A    between atoms: C2'_1367  and  O2'_1368
REMARK  530  A    between atoms: C1'_1369  and  N9_1370
REMARK  531  A    between atoms: C6_1374  and  N6_1375
REMARK  532  A    between atoms: P_1380  and  OP2_1382
REMARK  533  A    between atoms: P_1380  and  O5'_1383
REMARK  534  A    between atoms: O5'_1383  and  C5'_1384
REMARK  535  A    between atoms: C5'_1384  and  C4'_1385
REMARK  536  A    between atoms: C3'_1387  and  O3'_1388
REMARK  537  A    between atoms: O3'_1388  and  P_1402
REMARK  538  A    between atoms: C2'_1389  and  O2'_1390
REMARK  539  A    between atoms: C1'_1391  and  N9_1392
REMARK  540  A    between atoms: P_1402  and  OP2_1404
REMARK  541  A    between atoms: P_1402  and  O5'_1405
REMARK  542  A    between atoms: O5'_1405  and  C5'_1406
REMARK  543  A    between atoms: C5'_1406  and  C4'_1407
REMARK  544  A    between atoms: C3'_1409  and  O3'_1410
REMARK  545  A    between atoms: O3'_1410  and  P_1424
REMARK  546  A    between atoms: C2'_1411  and  O2'_1412
REMARK  547  A    between atoms: C1'_1413  and  N9_1414
REMARK  548  A    between atoms: P_1424  and  OP2_1426
REMARK  549  A    between atoms: P_1424  and  O5'_1427
REMARK  550  A    between atoms: O5'_1427  and  C5'_1428
REMARK  551  A    between atoms: C5'_1428  and  C4'_1429
REMARK  552  A    between atoms: C3'_1431  and  O3'_1432
REMARK  553  A    between atoms: O3'_1432  and  P_1446
REMARK  554  A    between atoms: C2'_1433  and  O2'_1434
REMARK  555  A    between atoms: C1'_1435  and  N9_1436
REMARK  556  A    between atoms: P_1446  and  OP2_1448
REMARK  557  A    between atoms: P_1446  and  O5'_1449
REMARK  558  A    between atoms: O5'_1449  and  C5'_1450
REMARK  559  A    between atoms: C5'_1450  and  C4'_1451
REMARK  560  A    between atoms: C3'_1453  and  O3'_1454
REMARK  561  A    between atoms: O3'_1454  and  P_1468
REMARK  562  A    between atoms: C2'_1455  and  O2'_1456
REMARK  563  A    between atoms: C1'_1457  and  N9_1458
REMARK  564  A    between atoms: P_1468  and  OP2_1470
REMARK  565  A    between atoms: P_1468  and  O5'_1471
REMARK  566  A    between atoms: O5'_1471  and  C5'_1472
REMARK  567  A    between atoms: C5'_1472  and  C4'_1473
REMARK  568  A    between atoms: C3'_1475  and  O3'_1476
REMARK  569  A    between atoms: O3'_1476  and  P_1488
REMARK  570  A    between atoms: C2'_1477  and  O2'_1478
REMARK  571  A    between atoms: C1'_1479  and  N1_1480
REMARK  572  A    between atoms: P_1488  and  OP2_1490
REMARK  573  A    between atoms: P_1488  and  O5'_1491
REMARK  574  A    between atoms: O5'_1491  and  C5'_1492
REMARK  575  A    between atoms: C5'_1492  and  C4'_1493
REMARK  576  A    between atoms: C3'_1495  and  O3'_1496
REMARK  577  A    between atoms: O3'_1496  and  P_1508
REMARK  578  A    between atoms: C2'_1497  and  O2'_1498
REMARK  579  A    between atoms: C1'_1499  and  N1_1500
REMARK  580  A    between atoms: P_1508  and  OP2_1510
REMARK  581  A    between atoms: P_1508  and  O5'_1511
REMARK  582  A    between atoms: O5'_1511  and  C5'_1512
REMARK  583  A    between atoms: C5'_1512  and  C4'_1513
REMARK  584  A    between atoms: C3'_1515  and  O3'_1516
REMARK  585  A    between atoms: O3'_1516  and  P_1528
REMARK  586  A    between atoms: C2'_1517  and  O2'_1518
REMARK  587  A    between atoms: C1'_1519  and  N1_1520
REMARK  588  A    between atoms: P_1528  and  OP1_1529
REMARK  589  A    between atoms: P_1528  and  O5'_1531
REMARK  590  A    between atoms: O5'_1531  and  C5'_1532
REMARK  591  A    between atoms: C5'_1532  and  C4'_1533
REMARK  592  A    between atoms: C3'_1535  and  O3'_1536
REMARK  593  A    between atoms: O3'_1536  and  P_1548
REMARK  594  A    between atoms: C2'_1537  and  O2'_1538
REMARK  595  A    between atoms: C1'_1539  and  N1_1540
REMARK  596  A    between atoms: P_1548  and  OP2_1550
REMARK  597  A    between atoms: P_1548  and  O5'_1551
REMARK  598  A    between atoms: O5'_1551  and  C5'_1552
REMARK  599  A    between atoms: C5'_1552  and  C4'_1553
REMARK  600  A    between atoms: C3'_1555  and  O3'_1556
REMARK  601  A    between atoms: O3'_1556  and  P_1568
REMARK  602  A    between atoms: C2'_1557  and  O2'_1558
REMARK  603  A    between atoms: C1'_1559  and  N1_1560
REMARK  604  A    between atoms: P_1568  and  OP1_1569
REMARK  605  A    between atoms: P_1568  and  O5'_1571
REMARK  606  A    between atoms: O5'_1571  and  C5'_1572
REMARK  607  A    between atoms: C5'_1572  and  C4'_1573
REMARK  608  A    between atoms: C3'_1575  and  O3'_1576
REMARK  609  A    between atoms: C2'_1577  and  O2'_1578
REMARK  610  A    between atoms: C1'_1579  and  N9_1580
REMARK  611  A    between atoms: C6_1584  and  N6_1585
REMARK                            x       y       z     vdW  Elec       q    Type
REMARK                         _______ _______ _______ _____ _____    ______ ____
ROOT
ATOM      1  P   U   B  39      33.989  -7.668  23.016  0.00  0.00    +0.000 P 
ATOM      2  OP1 U   B  39      35.256  -8.297  22.574  0.00  0.00    +0.000 OA
ENDROOT
BRANCH   1   3
ATOM      3  OP2 U   B  39      33.853  -7.186  24.409  0.00  0.00    +0.000 OA
ATOM      4  H   U   B  39      34.572  -6.566  24.608  0.00  0.00    +0.000 HD
ENDBRANCH   1   3
BRANCH   1   5
ATOM      5  O5' U   B  39      33.674  -6.464  22.038  0.00  0.00    +0.000 OA
BRANCH   5   6
ATOM      6  C5' U   B  39      33.399  -6.686  20.669  0.00  0.00    +0.000 C 
BRANCH   6   7
ATOM      7  C4' U   B  39      32.881  -5.424  20.012  0.00  0.00    +0.000 C 
ATOM      8  O4' U   B  39      31.648  -5.001  20.662  0.00  0.00    +0.000 OA
ATOM      9  C3' U   B  39      33.833  -4.234  20.075  0.00  0.00    +0.000 C 
ATOM     10  C2' U   B  39      33.221  -3.372  21.182  0.00  0.00    +0.000 C 
ATOM     11  C1' U   B  39      31.746  -3.636  20.964  0.00  0.00    +0.000 C 
BRANCH  11  12
ATOM     12  N1  U   B  39      30.885  -3.278  22.124  0.00  0.00    +0.000 N 
ATOM     13  C2  U   B  39      31.120  -3.830  23.365  0.00  0.00    +0.000 A 
ATOM     14  O2  U   B  39      32.006  -4.638  23.599  0.00  0.00    +0.000 OA
ATOM     15  N3  U   B  39      30.264  -3.407  24.360  0.00  0.00    +0.000 N 
ATOM     16  C4  U   B  39      29.224  -2.511  24.239  0.00  0.00    +0.000 A 
ATOM     17  O4  U   B  39      28.551  -2.235  25.234  0.00  0.00    +0.000 OA
ATOM     18  C5  U   B  39      29.053  -1.991  22.930  0.00  0.00    +0.000 A 
ATOM     19  C6  U   B  39      29.864  -2.379  21.935  0.00  0.00    +0.000 A 
ATOM     20  H   U   B  39      30.412  -3.787  25.256  0.00  0.00    +0.000 HD
ENDBRANCH  11  12
BRANCH  10  21
ATOM     21  O2' U   B  39      33.511  -1.987  21.107  0.00  0.00    +0.000 OA
ATOM     22  H   U   B  39      33.200  -1.637  20.258  0.00  0.00    +0.000 HD
ENDBRANCH  10  21
BRANCH   9  23
ATOM     23  O3' U   B  39      33.776  -3.538  18.828  0.00  0.00    +0.000 OA
BRANCH  23  24
ATOM     24  P   C   B  40      34.944  -2.578  18.394  0.00  0.00    +0.000 P 
ATOM     25  OP1 C   B  40      35.408  -2.924  17.033  0.00  0.00    +0.000 OA
BRANCH  24  26
ATOM     26  OP2 C   B  40      35.952  -2.445  19.469  0.00  0.00    +0.000 OA
ATOM     27  H   C   B  40      36.660  -1.849  19.177  0.00  0.00    +0.000 HD
ENDBRANCH  24  26
BRANCH  24  28
ATOM     28  O5' C   B  40      34.114  -1.226  18.320  0.00  0.00    +0.000 OA
BRANCH  28  29
ATOM     29  C5' C   B  40      34.434  -0.092  19.097  0.00  0.00    +0.000 C 
BRANCH  29  30
ATOM     30  C4' C   B  40      33.956   1.159  18.416  0.00  0.00    +0.000 C 
ATOM     31  O4' C   B  40      34.592   1.273  17.115  0.00  0.00    +0.000 OA
ATOM     32  C3' C   B  40      32.475   1.226  18.115  0.00  0.00    +0.000 C 
ATOM     33  C2' C   B  40      32.425   2.233  16.975  0.00  0.00    +0.000 C 
ATOM     34  C1' C   B  40      33.689   1.863  16.195  0.00  0.00    +0.000 C 
BRANCH  34  35
ATOM     35  N1  C   B  40      33.429   0.909  15.098  0.00  0.00    +0.000 N 
ATOM     36  C2  C   B  40      32.780   1.369  13.947  0.00  0.00    +0.000 A 
ATOM     37  O2  C   B  40      32.440   2.558  13.873  0.00  0.00    +0.000 OA
ATOM     38  N3  C   B  40      32.537   0.504  12.937  0.00  0.00    +0.000 NA
ATOM     39  C4  C   B  40      32.916  -0.770  13.045  0.00  0.00    +0.000 A 
ATOM     40  N4  C   B  40      32.647  -1.584  12.022  0.00  0.00    +0.000 N 
ATOM     41  C5  C   B  40      33.579  -1.262  14.202  0.00  0.00    +0.000 A 
ATOM     42  C6  C   B  40      33.820  -0.393  15.199  0.00  0.00    +0.000 A 
ATOM     43  H   C   B  40      32.187  -1.236  11.224  0.00  0.00    +0.000 HD
ATOM     44  H   C   B  40      32.908  -2.532  12.066  0.00  0.00    +0.000 HD
ENDBRANCH  34  35
BRANCH  33  45
ATOM     45  O2' C   B  40      32.524   3.557  17.430  0.00  0.00    +0.000 OA
ATOM     46  H   C   B  40      33.339   3.662  17.945  0.00  0.00    +0.000 HD
ENDBRANCH  33  45
BRANCH  32  47
ATOM     47  O3' C   B  40      31.699   1.617  19.246  0.00  0.00    +0.000 OA
BRANCH  47  48
ATOM     48  P   U   B  41      30.322   0.899  19.562  0.00  0.00    +0.000 P 
ATOM     49  OP2 U   B  41      30.546  -0.569  19.534  0.00  0.00    +0.000 OA
BRANCH  48  50
ATOM     50  OP1 U   B  41      29.749   1.526  20.772  0.00  0.00    +0.000 OA
ATOM     51  H   U   B  41      29.666   2.482  20.632  0.00  0.00    +0.000 HD
ENDBRANCH  48  50
BRANCH  48  52
ATOM     52  O5' U   B  41      29.399   1.278  18.320  0.00  0.00    +0.000 OA
BRANCH  52  53
ATOM     53  C5' U   B  41      29.019   2.626  18.079  0.00  0.00    +0.000 C 
BRANCH  53  54
ATOM     54  C4' U   B  41      28.304   2.755  16.759  0.00  0.00    +0.000 C 
ATOM     55  O4' U   B  41      29.183   2.340  15.680  0.00  0.00    +0.000 OA
ATOM     56  C3' U   B  41      27.080   1.882  16.598  0.00  0.00    +0.000 C 
ATOM     57  C2' U   B  41      26.958   1.777  15.083  0.00  0.00    +0.000 C 
ATOM     58  C1' U   B  41      28.428   1.706  14.667  0.00  0.00    +0.000 C 
BRANCH  58  59
ATOM     59  N1  U   B  41      28.912   0.316  14.514  0.00  0.00    +0.000 N 
ATOM     60  C2  U   B  41      28.513  -0.382  13.390  0.00  0.00    +0.000 A 
ATOM     61  O2  U   B  41      27.787   0.092  12.537  0.00  0.00    +0.000 OA
ATOM     62  N3  U   B  41      28.997  -1.663  13.301  0.00  0.00    +0.000 N 
ATOM     63  C4  U   B  41      29.821  -2.302  14.198  0.00  0.00    +0.000 A 
ATOM     64  O4  U   B  41      30.172  -3.459  13.978  0.00  0.00    +0.000 OA
ATOM     65  C5  U   B  41      30.192  -1.514  15.332  0.00  0.00    +0.000 A 
ATOM     66  C6  U   B  41      29.737  -0.259  15.445  0.00  0.00    +0.000 A 
ATOM     67  H   U   B  41      28.725  -2.181  12.509  0.00  0.00    +0.000 HD
ENDBRANCH  58  59
BRANCH  57  68
ATOM     68  O2' U   B  41      26.373   2.930  14.512  0.00  0.00    +0.000 OA
ATOM     69  H   U   B  41      26.890   3.712  14.761  0.00  0.00    +0.000 HD
ENDBRANCH  57  68
BRANCH  56  70
ATOM     70  O3' U   B  41      25.932   2.448  17.215  0.00  0.00    +0.000 OA
BRANCH  70  71
ATOM     71  P   U   B  42      24.849   1.536  17.928  0.00  0.00    +0.000 P 
ATOM     72  OP2 U   B  42      25.552   0.447  18.643  0.00  0.00    +0.000 OA
BRANCH  71  73
ATOM     73  OP1 U   B  42      23.917   2.420  18.661  0.00  0.00    +0.000 OA
ATOM     74  H   U   B  42      23.544   3.075  18.050  0.00  0.00    +0.000 HD
ENDBRANCH  71  73
BRANCH  71  75
ATOM     75  O5' U   B  42      24.059   0.897  16.699  0.00  0.00    +0.000 OA
BRANCH  75  76
ATOM     76  C5' U   B  42      23.274   1.705  15.830  0.00  0.00    +0.000 C 
BRANCH  76  77
ATOM     77  C4' U   B  42      22.844   0.931  14.607  0.00  0.00    +0.000 C 
ATOM     78  O4' U   B  42      24.016   0.473  13.871  0.00  0.00    +0.000 OA
ATOM     79  C3' U   B  42      22.062  -0.337  14.867  0.00  0.00    +0.000 C 
ATOM     80  C2' U   B  42      22.278  -1.108  13.570  0.00  0.00    +0.000 C 
ATOM     81  C1' U   B  42      23.737  -0.769  13.261  0.00  0.00    +0.000 C 
BRANCH  81  82
ATOM     82  N1  U   B  42      24.670  -1.791  13.791  0.00  0.00    +0.000 N 
ATOM     83  C2  U   B  42      24.790  -2.973  13.080  0.00  0.00    +0.000 A 
ATOM     84  O2  U   B  42      24.171  -3.196  12.054  0.00  0.00    +0.000 OA
ATOM     85  N3  U   B  42      25.665  -3.888  13.615  0.00  0.00    +0.000 N 
ATOM     86  C4  U   B  42      26.415  -3.745  14.762  0.00  0.00    +0.000 A 
ATOM     87  O4  U   B  42      27.158  -4.659  15.116  0.00  0.00    +0.000 OA
ATOM     88  C5  U   B  42      26.237  -2.496  15.440  0.00  0.00    +0.000 A 
ATOM     89  C6  U   B  42      25.391  -1.584  14.941  0.00  0.00    +0.000 A 
ATOM     90  H   U   B  42      25.767  -4.737  13.126  0.00  0.00    +0.000 HD
ENDBRANCH  81  82
BRANCH  80  91
ATOM     91  O2' U   B  42      21.460  -0.625  12.521  0.00  0.00    +0.000 OA
ATOM     92  H   U   B  42      21.625   0.322  12.392  0.00  0.00    +0.000 HD
ENDBRANCH  80  91
BRANCH  79  93
ATOM     93  O3' U   B  42      20.688  -0.100  15.153  0.00  0.00    +0.000 OA
BRANCH  93  94
ATOM     94  P   A   B  43      19.976  -0.824  16.382  0.00  0.00    +0.000 P 
ATOM     95  OP1 A   B  43      18.523  -0.543  16.296  0.00  0.00    +0.000 OA
BRANCH  94  96
ATOM     96  OP2 A   B  43      20.712  -0.488  17.620  0.00  0.00    +0.000 OA
ATOM     97  H   A   B  43      21.645  -0.732  17.518  0.00  0.00    +0.000 HD
ENDBRANCH  94  96
BRANCH  94  98
ATOM     98  O5' A   B  43      20.204  -2.374  16.084  0.00  0.00    +0.000 OA
BRANCH  98  99
ATOM     99  C5' A   B  43      19.586  -3.007  14.971  0.00  0.00    +0.000 C 
BRANCH  99 100
ATOM    100  C4' A   B  43      20.311  -4.284  14.605  0.00  0.00    +0.000 C 
ATOM    101  O4' A   B  43      21.739  -4.028  14.518  0.00  0.00    +0.000 OA
ATOM    102  C3' A   B  43      20.202  -5.422  15.602  0.00  0.00    +0.000 C 
ATOM    103  C2' A   B  43      21.439  -6.246  15.277  0.00  0.00    +0.000 C 
ATOM    104  C1' A   B  43      22.456  -5.149  14.988  0.00  0.00    +0.000 C 
BRANCH 104 105
ATOM    105  N9  A   B  43      23.202  -4.767  16.198  0.00  0.00    +0.000 N 
ATOM    106  C8  A   B  43      23.051  -3.635  16.956  0.00  0.00    +0.000 A 
ATOM    107  N7  A   B  43      23.860  -3.585  17.987  0.00  0.00    +0.000 NA
ATOM    108  C5  A   B  43      24.591  -4.762  17.901  0.00  0.00    +0.000 A 
ATOM    109  C6  A   B  43      25.614  -5.305  18.695  0.00  0.00    +0.000 A 
ATOM    110  N6  A   B  43      26.092  -4.703  19.789  0.00  0.00    +0.000 N 
ATOM    111  N1  A   B  43      26.128  -6.498  18.332  0.00  0.00    +0.000 NA
ATOM    112  C2  A   B  43      25.643  -7.097  17.240  0.00  0.00    +0.000 A 
ATOM    113  N3  A   B  43      24.684  -6.685  16.412  0.00  0.00    +0.000 NA
ATOM    114  C4  A   B  43      24.195  -5.497  16.803  0.00  0.00    +0.000 A 
ATOM    115  H   A   B  43      25.729  -3.832  20.070  0.00  0.00    +0.000 HD
ATOM    116  H   A   B  43      26.807  -5.131  20.314  0.00  0.00    +0.000 HD
ENDBRANCH 104 105
BRANCH 103 117
ATOM    117  O2' A   B  43      21.264  -7.029  14.112  0.00  0.00    +0.000 OA
ATOM    118  H   A   B  43      21.024  -6.454  13.369  0.00  0.00    +0.000 HD
ENDBRANCH 103 117
BRANCH 102 119
ATOM    119  O3' A   B  43      18.992  -6.151  15.475  0.00  0.00    +0.000 OA
BRANCH 119 120
ATOM    120  P   C   B  44      18.263  -6.760  16.750  0.00  0.00    +0.000 P 
ATOM    121  OP1 C   B  44      16.999  -7.386  16.295  0.00  0.00    +0.000 OA
BRANCH 120 122
ATOM    122  OP2 C   B  44      18.234  -5.730  17.820  0.00  0.00    +0.000 OA
ATOM    123  H   C   B  44      17.635  -5.012  17.562  0.00  0.00    +0.000 HD
ENDBRANCH 120 122
BRANCH 120 124
ATOM    124  O5' C   B  44      19.256  -7.918  17.214  0.00  0.00    +0.000 OA
BRANCH 124 125
ATOM    125  C5' C   B  44      19.564  -9.022  16.367  0.00  0.00    +0.000 C 
BRANCH 125 126
ATOM    126  C4' C   B  44      20.758  -9.786  16.889  0.00  0.00    +0.000 C 
ATOM    127  O4' C   B  44      21.900  -8.893  17.007  0.00  0.00    +0.000 OA
ATOM    128  C3' C   B  44      20.601 -10.374  18.277  0.00  0.00    +0.000 C 
ATOM    129  C2' C   B  44      22.045 -10.507  18.743  0.00  0.00    +0.000 C 
ATOM    130  C1' C   B  44      22.675  -9.246  18.135  0.00  0.00    +0.000 C 
BRANCH 130 131
ATOM    131  N1  C   B  44      22.694  -8.103  19.079  0.00  0.00    +0.000 N 
ATOM    132  C2  C   B  44      23.638  -8.092  20.106  0.00  0.00    +0.000 A 
ATOM    133  O2  C   B  44      24.438  -9.037  20.206  0.00  0.00    +0.000 OA
ATOM    134  N3  C   B  44      23.663  -7.051  20.975  0.00  0.00    +0.000 NA
ATOM    135  C4  C   B  44      22.792  -6.045  20.844  0.00  0.00    +0.000 A 
ATOM    136  N4  C   B  44      22.854  -5.043  21.723  0.00  0.00    +0.000 N 
ATOM    137  C5  C   B  44      21.821  -6.034  19.806  0.00  0.00    +0.000 A 
ATOM    138  C6  C   B  44      21.806  -7.067  18.954  0.00  0.00    +0.000 A 
ATOM    139  H   C   B  44      22.226  -4.288  21.653  0.00  0.00    +0.000 HD
ATOM    140  H   C   B  44      23.527  -5.059  22.441  0.00  0.00    +0.000 HD
ENDBRANCH 130 131
BRANCH 129 141
ATOM    141  O2' C   B  44      22.676 -11.648  18.197  0.00  0.00    +0.000 OA
ATOM    142  H   C   B  44      22.626 -11.613  17.229  0.00  0.00    +0.000 HD
ENDBRANCH 129 141
BRANCH 128 143
ATOM    143  O3' C   B  44      19.903 -11.615  18.253  0.00  0.00    +0.000 OA
BRANCH 143 144
ATOM    144  P   U   B  45      19.001 -12.069  19.482  0.00  0.00    +0.000 P 
ATOM    145  OP1 U   B  45      18.245 -13.266  19.061  0.00  0.00    +0.000 OA
BRANCH 144 146
ATOM    146  OP2 U   B  45      18.281 -10.883  20.006  0.00  0.00    +0.000 OA
ATOM    147  H   U   B  45      17.622 -10.591  19.356  0.00  0.00    +0.000 HD
ENDBRANCH 144 146
BRANCH 144 148
ATOM    148  O5' U   B  45      20.075 -12.523  20.572  0.00  0.00    +0.000 OA
BRANCH 148 149
ATOM    149  C5' U   B  45      20.999 -13.574  20.306  0.00  0.00    +0.000 C 
BRANCH 149 150
ATOM    150  C4' U   B  45      21.781 -13.934  21.544  0.00  0.00    +0.000 C 
ATOM    151  O4' U   B  45      22.660 -12.841  21.914  0.00  0.00    +0.000 OA
ATOM    152  C3' U   B  45      20.951 -14.176  22.785  0.00  0.00    +0.000 C 
ATOM    153  C2' U   B  45      21.952 -13.926  23.905  0.00  0.00    +0.000 C 
ATOM    154  C1' U   B  45      22.771 -12.768  23.323  0.00  0.00    +0.000 C 
BRANCH 154 155
ATOM    155  N1  U   B  45      22.295 -11.437  23.770  0.00  0.00    +0.000 N 
ATOM    156  C2  U   B  45      22.525 -11.069  25.088  0.00  0.00    +0.000 A 
ATOM    157  O2  U   B  45      23.083 -11.789  25.895  0.00  0.00    +0.000 OA
ATOM    158  N3  U   B  45      22.066  -9.817  25.430  0.00  0.00    +0.000 N 
ATOM    159  C4  U   B  45      21.419  -8.913  24.612  0.00  0.00    +0.000 A 
ATOM    160  O4  U   B  45      21.073  -7.825  25.071  0.00  0.00    +0.000 OA
ATOM    161  C5  U   B  45      21.222  -9.363  23.271  0.00  0.00    +0.000 A 
ATOM    162  C6  U   B  45      21.661 -10.579  22.905  0.00  0.00    +0.000 A 
ATOM    163  H   U   B  45      22.216  -9.535  26.361  0.00  0.00    +0.000 HD
ENDBRANCH 154 155
BRANCH 153 164
ATOM    164  O2' U   B  45      22.799 -15.038  24.104  0.00  0.00    +0.000 OA
ATOM    165  H   U   B  45      23.247 -15.256  23.272  0.00  0.00    +0.000 HD
ENDBRANCH 153 164
BRANCH 152 166
ATOM    166  O3' U   B  45      20.390 -15.485  22.808  0.00  0.00    +0.000 OA
BRANCH 166 167
ATOM    167  P   U   B  46      18.906 -15.720  23.351  0.00  0.00    +0.000 P 
ATOM    168  OP2 U   B  46      18.024 -14.649  22.824  0.00  0.00    +0.000 OA
BRANCH 167 169
ATOM    169  OP1 U   B  46      18.549 -17.141  23.127  0.00  0.00    +0.000 OA
ATOM    170  H   U   B  46      18.439 -17.301  22.177  0.00  0.00    +0.000 HD
ENDBRANCH 167 169
BRANCH 167 171
ATOM    171  O5' U   B  46      19.077 -15.499  24.915  0.00  0.00    +0.000 OA
BRANCH 171 172
ATOM    172  C5' U   B  46      19.941 -16.327  25.685  0.00  0.00    +0.000 C 
BRANCH 172 173
ATOM    173  C4' U   B  46      20.130 -15.775  27.074  0.00  0.00    +0.000 C 
ATOM    174  O4' U   B  46      20.851 -14.514  27.011  0.00  0.00    +0.000 OA
ATOM    175  C3' U   B  46      18.864 -15.430  27.824  0.00  0.00    +0.000 C 
ATOM    176  C2' U   B  46      19.369 -14.441  28.862  0.00  0.00    +0.000 C 
ATOM    177  C1' U   B  46      20.405 -13.660  28.046  0.00  0.00    +0.000 C 
BRANCH 177 178
ATOM    178  N1  U   B  46      19.838 -12.432  27.446  0.00  0.00    +0.000 N 
ATOM    179  C2  U   B  46      19.716 -11.324  28.265  0.00  0.00    +0.000 A 
ATOM    180  O2  U   B  46      20.051 -11.326  29.436  0.00  0.00    +0.000 OA
ATOM    181  N3  U   B  46      19.184 -10.207  27.665  0.00  0.00    +0.000 N 
ATOM    182  C4  U   B  46      18.772 -10.088  26.356  0.00  0.00    +0.000 A 
ATOM    183  O4  U   B  46      18.313  -9.015  25.964  0.00  0.00    +0.000 OA
ATOM    184  C5  U   B  46      18.927 -11.274  25.575  0.00  0.00    +0.000 A 
ATOM    185  C6  U   B  46      19.443 -12.377  26.133  0.00  0.00    +0.000 A 
ATOM    186  H   U   B  46      19.087  -9.407  28.231  0.00  0.00    +0.000 HD
ENDBRANCH 177 178
BRANCH 176 187
ATOM    187  O2' U   B  46      20.027 -15.088  29.933  0.00  0.00    +0.000 OA
ATOM    188  H   U   B  46      20.752 -15.631  29.586  0.00  0.00    +0.000 HD
ENDBRANCH 176 187
BRANCH 175 189
ATOM    189  O3' U   B  46      18.228 -16.572  28.377  0.00  0.00    +0.000 OA
BRANCH 189 190
ATOM    190  P   U   B  47      16.637 -16.630  28.509  0.00  0.00    +0.000 P 
ATOM    191  OP2 U   B  47      16.036 -16.003  27.306  0.00  0.00    +0.000 OA
BRANCH 190 192
ATOM    192  OP1 U   B  47      16.257 -18.011  28.889  0.00  0.00    +0.000 OA
ATOM    193  H   U   B  47      16.418 -18.608  28.142  0.00  0.00    +0.000 HD
ENDBRANCH 190 192
BRANCH 190 194
ATOM    194  O5' U   B  47      16.361 -15.680  29.754  0.00  0.00    +0.000 OA
BRANCH 194 195
ATOM    195  C5' U   B  47      16.920 -15.971  31.028  0.00  0.00    +0.000 C 
BRANCH 195 196
ATOM    196  C4' U   B  47      16.758 -14.818  31.987  0.00  0.00    +0.000 C 
ATOM    197  O4' U   B  47      17.504 -13.664  31.513  0.00  0.00    +0.000 OA
ATOM    198  C3' U   B  47      15.355 -14.286  32.160  0.00  0.00    +0.000 C 
ATOM    199  C2' U   B  47      15.620 -12.903  32.738  0.00  0.00    +0.000 C 
ATOM    200  C1' U   B  47      16.861 -12.480  31.943  0.00  0.00    +0.000 C 
BRANCH 200 201
ATOM    201  N1  U   B  47      16.516 -11.652  30.769  0.00  0.00    +0.000 N 
ATOM    202  C2  U   B  47      16.276 -10.307  30.998  0.00  0.00    +0.000 A 
ATOM    203  O2  U   B  47      16.342  -9.804  32.105  0.00  0.00    +0.000 OA
ATOM    204  N3  U   B  47      15.955  -9.570  29.883  0.00  0.00    +0.000 N 
ATOM    205  C4  U   B  47      15.850 -10.030  28.590  0.00  0.00    +0.000 A 
ATOM    206  O4  U   B  47      15.551  -9.242  27.695  0.00  0.00    +0.000 OA
ATOM    207  C5  U   B  47      16.110 -11.429  28.434  0.00  0.00    +0.000 A 
ATOM    208  C6  U   B  47      16.426 -12.173  29.501  0.00  0.00    +0.000 A 
ATOM    209  H   U   B  47      15.782  -8.611  30.024  0.00  0.00    +0.000 HD
ENDBRANCH 200 201
BRANCH 199 210
ATOM    210  O2' U   B  47      15.954 -12.958  34.111  0.00  0.00    +0.000 OA
ATOM    211  H   U   B  47      16.720 -13.540  34.234  0.00  0.00    +0.000 HD
ENDBRANCH 199 210
BRANCH 198 212
ATOM    212  O3' U   B  47      14.553 -15.110  32.994  0.00  0.00    +0.000 OA
BRANCH 212 213
ATOM    213  P   A   B  48      12.961 -15.152  32.814  0.00  0.00    +0.000 P 
ATOM    214  OP2 A   B  48      12.649 -15.067  31.366  0.00  0.00    +0.000 OA
BRANCH 213 215
ATOM    215  OP1 A   B  48      12.429 -16.279  33.618  0.00  0.00    +0.000 OA
ATOM    216  H   A   B  48      12.701 -17.119  33.217  0.00  0.00    +0.000 HD
ENDBRANCH 213 215
BRANCH 213 217
ATOM    217  O5' A   B  48      12.497 -13.792  33.500  0.00  0.00    +0.000 OA
BRANCH 217 218
ATOM    218  C5' A   B  48      12.758 -13.550  34.877  0.00  0.00    +0.000 C 
BRANCH 218 219
ATOM    219  C4' A   B  48      12.519 -12.105  35.231  0.00  0.00    +0.000 C 
ATOM    220  O4' A   B  48      13.425 -11.252  34.478  0.00  0.00    +0.000 OA
ATOM    221  C3' A   B  48      11.147 -11.557  34.895  0.00  0.00    +0.000 C 
ATOM    222  C2' A   B  48      11.410 -10.061  34.849  0.00  0.00    +0.000 C 
ATOM    223  C1' A   B  48      12.795 -10.017  34.204  0.00  0.00    +0.000 C 
BRANCH 223 224
ATOM    224  N9  A   B  48      12.730  -9.829  32.748  0.00  0.00    +0.000 N 
ATOM    225  C8  A   B  48      12.879 -10.769  31.760  0.00  0.00    +0.000 A 
ATOM    226  N7  A   B  48      12.770 -10.277  30.548  0.00  0.00    +0.000 NA
ATOM    227  C5  A   B  48      12.537  -8.926  30.753  0.00  0.00    +0.000 A 
ATOM    228  C6  A   B  48      12.333  -7.853  29.872  0.00  0.00    +0.000 A 
ATOM    229  N1  A   B  48      12.125  -6.634  30.399  0.00  0.00    +0.000 NA
ATOM    230  C2  A   B  48      12.124  -6.503  31.729  0.00  0.00    +0.000 A 
ATOM    231  N3  A   B  48      12.308  -7.434  32.665  0.00  0.00    +0.000 NA
ATOM    232  C4  A   B  48      12.509  -8.636  32.104  0.00  0.00    +0.000 A 
BRANCH 228 233
ATOM    233  N6  A   B  48      12.332  -7.981  28.540  0.00  0.00    +0.000 N 
ATOM    234  H   A   B  48      12.183  -7.192  27.970  0.00  0.00    +0.000 HD
ATOM    235  H   A   B  48      12.480  -8.864  28.130  0.00  0.00    +0.000 HD
ENDBRANCH 228 233
ENDBRANCH 223 224
BRANCH 222 236
ATOM    236  O2' A   B  48      11.486  -9.499  36.147  0.00  0.00    +0.000 OA
ATOM    237  H   A   B  48      12.170  -9.958  36.659  0.00  0.00    +0.000 HD
ENDBRANCH 222 236
BRANCH 221 238
ATOM    238  O3' A   B  48      10.165 -11.933  35.851  0.00  0.00    +0.000 OA
BRANCH 238 239
ATOM    239  P   U   B  49       8.643 -12.148  35.430  0.00  0.00    +0.000 P 
ATOM    240  OP2 U   B  49       8.618 -12.761  34.076  0.00  0.00    +0.000 OA
BRANCH 239 241
ATOM    241  OP1 U   B  49       7.935 -12.812  36.550  0.00  0.00    +0.000 OA
ATOM    242  H   U   B  49       7.006 -12.950  36.309  0.00  0.00    +0.000 HD
ENDBRANCH 239 241
BRANCH 239 243
ATOM    243  O5' U   B  49       8.096 -10.658  35.310  0.00  0.00    +0.000 OA
BRANCH 243 244
ATOM    244  C5' U   B  49       8.121  -9.776  36.423  0.00  0.00    +0.000 C 
BRANCH 244 245
ATOM    245  C4' U   B  49       7.881  -8.349  35.998  0.00  0.00    +0.000 C 
ATOM    246  O4' U   B  49       8.951  -7.905  35.116  0.00  0.00    +0.000 OA
ATOM    247  C3' U   B  49       6.622  -8.106  35.194  0.00  0.00    +0.000 C 
ATOM    248  C2' U   B  49       6.950  -6.799  34.484  0.00  0.00    +0.000 C 
ATOM    249  C1' U   B  49       8.436  -6.998  34.161  0.00  0.00    +0.000 C 
BRANCH 249 250
ATOM    250  N1  U   B  49       8.651  -7.555  32.809  0.00  0.00    +0.000 N 
ATOM    251  C2  U   B  49       8.616  -6.670  31.745  0.00  0.00    +0.000 A 
ATOM    252  O2  U   B  49       8.417  -5.476  31.879  0.00  0.00    +0.000 OA
ATOM    253  N3  U   B  49       8.824  -7.236  30.509  0.00  0.00    +0.000 N 
ATOM    254  C4  U   B  49       9.057  -8.565  30.235  0.00  0.00    +0.000 A 
ATOM    255  O4  U   B  49       9.225  -8.917  29.070  0.00  0.00    +0.000 OA
ATOM    256  C5  U   B  49       9.076  -9.413  31.385  0.00  0.00    +0.000 A 
ATOM    257  C6  U   B  49       8.878  -8.891  32.603  0.00  0.00    +0.000 A 
ATOM    258  H   U   B  49       8.804  -6.625  29.737  0.00  0.00    +0.000 HD
ENDBRANCH 249 250
BRANCH 248 259
ATOM    259  O2' U   B  49       6.812  -5.685  35.343  0.00  0.00    +0.000 OA
ATOM    260  H   U   B  49       7.372  -5.809  36.125  0.00  0.00    +0.000 HD
ENDBRANCH 248 259
BRANCH 247 261
ATOM    261  O3' U   B  49       5.459  -8.039  36.005  0.00  0.00    +0.000 OA
BRANCH 261 262
ATOM    262  P   U   B  50       4.055  -8.560  35.459  0.00  0.00    +0.000 P 
ATOM    263  OP2 U   B  50       4.294  -9.765  34.626  0.00  0.00    +0.000 OA
BRANCH 262 264
ATOM    264  OP1 U   B  50       3.107  -8.629  36.593  0.00  0.00    +0.000 OA
ATOM    265  H   U   B  50       2.246  -8.945  36.276  0.00  0.00    +0.000 HD
ENDBRANCH 262 264
BRANCH 262 266
ATOM    266  O5' U   B  50       3.592  -7.379  34.496  0.00  0.00    +0.000 OA
BRANCH 266 267
ATOM    267  C5' U   B  50       3.398  -6.062  34.995  0.00  0.00    +0.000 C 
BRANCH 267 268
ATOM    268  C4' U   B  50       3.346  -5.053  33.878  0.00  0.00    +0.000 C 
ATOM    269  O4' U   B  50       4.604  -5.055  33.145  0.00  0.00    +0.000 OA
ATOM    270  C3' U   B  50       2.305  -5.304  32.809  0.00  0.00    +0.000 C 
ATOM    271  C2' U   B  50       2.860  -4.511  31.635  0.00  0.00    +0.000 C 
ATOM    272  C1' U   B  50       4.363  -4.767  31.782  0.00  0.00    +0.000 C 
BRANCH 272 273
ATOM    273  N1  U   B  50       4.823  -5.909  30.962  0.00  0.00    +0.000 N 
ATOM    274  C2  U   B  50       5.052  -5.675  29.618  0.00  0.00    +0.000 A 
ATOM    275  O2  U   B  50       4.888  -4.587  29.096  0.00  0.00    +0.000 OA
ATOM    276  N3  U   B  50       5.480  -6.767  28.902  0.00  0.00    +0.000 N 
ATOM    277  C4  U   B  50       5.697  -8.039  29.380  0.00  0.00    +0.000 A 
ATOM    278  O4  U   B  50       6.082  -8.914  28.610  0.00  0.00    +0.000 OA
ATOM    279  C5  U   B  50       5.436  -8.200  30.778  0.00  0.00    +0.000 A 
ATOM    280  C6  U   B  50       5.018  -7.154  31.501  0.00  0.00    +0.000 A 
ATOM    281  H   U   B  50       5.650  -6.624  27.943  0.00  0.00    +0.000 HD
ENDBRANCH 272 273
BRANCH 271 282
ATOM    282  O2' U   B  50       2.618  -3.126  31.776  0.00  0.00    +0.000 OA
ATOM    283  H   U   B  50       2.992  -2.816  32.616  0.00  0.00    +0.000 HD
ENDBRANCH 271 282
BRANCH 270 284
ATOM    284  O3' U   B  50       1.004  -4.896  33.206  0.00  0.00    +0.000 OA
BRANCH 284 285
ATOM    285  P   U   B  51      -0.288  -5.648  32.643  0.00  0.00    +0.000 P 
ATOM    286  OP2 U   B  51       0.008  -7.099  32.557  0.00  0.00    +0.000 OA
BRANCH 285 287
ATOM    287  OP1 U   B  51      -1.468  -5.182  33.404  0.00  0.00    +0.000 OA
ATOM    288  H   U   B  51      -2.263  -5.630  33.074  0.00  0.00    +0.000 HD
ENDBRANCH 285 287
BRANCH 285 289
ATOM    289  O5' U   B  51      -0.401  -5.082  31.156  0.00  0.00    +0.000 OA
BRANCH 289 290
ATOM    290  C5' U   B  51      -0.579  -3.694  30.910  0.00  0.00    +0.000 C 
BRANCH 290 291
ATOM    291  C4' U   B  51      -0.295  -3.350  29.470  0.00  0.00    +0.000 C 
ATOM    292  O4' U   B  51       1.076  -3.708  29.135  0.00  0.00    +0.000 OA
ATOM    293  C3' U   B  51      -1.122  -4.083  28.439  0.00  0.00    +0.000 C 
ATOM    294  C2' U   B  51      -0.257  -3.967  27.194  0.00  0.00    +0.000 C 
ATOM    295  C1' U   B  51       1.146  -4.119  27.785  0.00  0.00    +0.000 C 
BRANCH 295 296
ATOM    296  N1  U   B  51       1.636  -5.514  27.737  0.00  0.00    +0.000 N 
ATOM    297  C2  U   B  51       2.144  -5.967  26.532  0.00  0.00    +0.000 A 
ATOM    298  O2  U   B  51       2.198  -5.275  25.532  0.00  0.00    +0.000 OA
ATOM    299  N3  U   B  51       2.590  -7.265  26.542  0.00  0.00    +0.000 N 
ATOM    300  C4  U   B  51       2.579  -8.138  27.605  0.00  0.00    +0.000 A 
ATOM    301  O4  U   B  51       3.017  -9.277  27.457  0.00  0.00    +0.000 OA
ATOM    302  C5  U   B  51       2.037  -7.595  28.812  0.00  0.00    +0.000 A 
ATOM    303  C6  U   B  51       1.596  -6.333  28.834  0.00  0.00    +0.000 A 
ATOM    304  H   U   B  51       2.958  -7.609  25.696  0.00  0.00    +0.000 HD
ENDBRANCH 295 296
BRANCH 294 305
ATOM    305  O2' U   B  51      -0.365  -2.690  26.599  0.00  0.00    +0.000 OA
ATOM    306  H   U   B  51      -0.135  -2.009  27.251  0.00  0.00    +0.000 HD
ENDBRANCH 294 305
BRANCH 293 307
ATOM    307  O3' U   B  51      -2.415  -3.522  28.283  0.00  0.00    +0.000 OA
BRANCH 307 308
ATOM    308  P   U   B  52      -3.660  -4.446  27.880  0.00  0.00    +0.000 P 
ATOM    309  OP1 U   B  52      -4.898  -3.652  28.039  0.00  0.00    +0.000 OA
BRANCH 308 310
ATOM    310  OP2 U   B  52      -3.529  -5.754  28.568  0.00  0.00    +0.000 OA
ATOM    311  H   U   B  52      -4.279  -6.321  28.330  0.00  0.00    +0.000 HD
ENDBRANCH 308 310
BRANCH 308 312
ATOM    312  O5' U   B  52      -3.420  -4.686  26.324  0.00  0.00    +0.000 OA
BRANCH 312 313
ATOM    313  C5' U   B  52      -3.387  -3.597  25.409  0.00  0.00    +0.000 C 
BRANCH 313 314
ATOM    314  C4' U   B  52      -2.806  -4.015  24.083  0.00  0.00    +0.000 C 
ATOM    315  O4' U   B  52      -1.436  -4.474  24.262  0.00  0.00    +0.000 OA
ATOM    316  C3' U   B  52      -3.489  -5.179  23.403  0.00  0.00    +0.000 C 
ATOM    317  C2' U   B  52      -2.398  -5.688  22.471  0.00  0.00    +0.000 C 
ATOM    318  C1' U   B  52      -1.154  -5.509  23.342  0.00  0.00    +0.000 C 
BRANCH 318 319
ATOM    319  N1  U   B  52      -0.807  -6.737  24.094  0.00  0.00    +0.000 N 
ATOM    320  C2  U   B  52      -0.116  -7.722  23.413  0.00  0.00    +0.000 A 
ATOM    321  O2  U   B  52       0.208  -7.617  22.243  0.00  0.00    +0.000 OA
ATOM    322  N3  U   B  52       0.187  -8.839  24.155  0.00  0.00    +0.000 N 
ATOM    323  C4  U   B  52      -0.127  -9.067  25.474  0.00  0.00    +0.000 A 
ATOM    324  O4  U   B  52       0.214 -10.123  26.004  0.00  0.00    +0.000 OA
ATOM    325  C5  U   B  52      -0.843  -8.002  26.107  0.00  0.00    +0.000 A 
ATOM    326  C6  U   B  52      -1.149  -6.902  25.411  0.00  0.00    +0.000 A 
ATOM    327  H   U   B  52       0.682  -9.553  23.692  0.00  0.00    +0.000 HD
ENDBRANCH 318 319
BRANCH 317 328
ATOM    328  O2' U   B  52      -2.269  -4.878  21.321  0.00  0.00    +0.000 OA
ATOM    329  H   U   B  52      -2.101  -3.961  21.589  0.00  0.00    +0.000 HD
ENDBRANCH 317 328
BRANCH 316 330
ATOM    330  O3' U   B  52      -4.674  -4.794  22.726  0.00  0.00    +0.000 OA
BRANCH 330 331
ATOM    331  P   A   B  53      -5.914  -5.805  22.622  0.00  0.00    +0.000 P 
ATOM    332  OP1 A   B  53      -7.065  -5.063  22.056  0.00  0.00    +0.000 OA
BRANCH 331 333
ATOM    333  OP2 A   B  53      -6.057  -6.522  23.911  0.00  0.00    +0.000 OA
ATOM    334  H   A   B  53      -6.805  -7.137  23.858  0.00  0.00    +0.000 HD
ENDBRANCH 331 333
BRANCH 331 335
ATOM    335  O5' A   B  53      -5.413  -6.853  21.531  0.00  0.00    +0.000 OA
BRANCH 335 336
ATOM    336  C5' A   B  53      -5.142  -6.438  20.199  0.00  0.00    +0.000 C 
BRANCH 336 337
ATOM    337  C4' A   B  53      -4.352  -7.489  19.453  0.00  0.00    +0.000 C 
ATOM    338  O4' A   B  53      -3.081  -7.722  20.119  0.00  0.00    +0.000 OA
ATOM    339  C3' A   B  53      -4.975  -8.866  19.386  0.00  0.00    +0.000 C 
ATOM    340  C2' A   B  53      -3.766  -9.741  19.093  0.00  0.00    +0.000 C 
ATOM    341  C1' A   B  53      -2.703  -9.075  19.963  0.00  0.00    +0.000 C 
BRANCH 341 342
ATOM    342  N9  A   B  53      -2.607  -9.704  21.289  0.00  0.00    +0.000 N 
ATOM    343  C8  A   B  53      -3.109  -9.258  22.483  0.00  0.00    +0.000 A 
ATOM    344  N7  A   B  53      -2.846 -10.057  23.490  0.00  0.00    +0.000 NA
ATOM    345  C5  A   B  53      -2.126 -11.098  22.920  0.00  0.00    +0.000 A 
ATOM    346  C6  A   B  53      -1.554 -12.264  23.451  0.00  0.00    +0.000 A 
ATOM    347  N6  A   B  53      -1.627 -12.593  24.747  0.00  0.00    +0.000 N 
ATOM    348  N1  A   B  53      -0.907 -13.090  22.611  0.00  0.00    +0.000 NA
ATOM    349  C2  A   B  53      -0.837 -12.759  21.318  0.00  0.00    +0.000 A 
ATOM    350  N3  A   B  53      -1.331 -11.691  20.696  0.00  0.00    +0.000 NA
ATOM    351  C4  A   B  53      -1.973 -10.891  21.563  0.00  0.00    +0.000 A 
ATOM    352  H   A   B  53      -1.208 -13.424  25.068  0.00  0.00    +0.000 HD
ATOM    353  H   A   B  53      -2.100 -12.004  25.378  0.00  0.00    +0.000 HD
ENDBRANCH 341 342
BRANCH 340 354
ATOM    354  O2' A   B  53      -3.368  -9.654  17.738  0.00  0.00    +0.000 OA
ATOM    355  H   A   B  53      -3.194  -8.727  17.511  0.00  0.00    +0.000 HD
ENDBRANCH 340 354
BRANCH 339 356
ATOM    356  O3' A   B  53      -5.993  -8.961  18.401  0.00  0.00    +0.000 OA
BRANCH 356 357
ATOM    357  P   A   B  54      -7.219  -9.967  18.607  0.00  0.00    +0.000 P 
ATOM    358  OP1 A   B  54      -8.196  -9.715  17.518  0.00  0.00    +0.000 OA
BRANCH 357 359
ATOM    359  OP2 A   B  54      -7.661  -9.907  20.020  0.00  0.00    +0.000 OA
ATOM    360  H   A   B  54      -8.405 -10.515  20.152  0.00  0.00    +0.000 HD
ENDBRANCH 357 359
BRANCH 357 361
ATOM    361  O5' A   B  54      -6.558 -11.397  18.361  0.00  0.00    +0.000 OA
BRANCH 361 362
ATOM    362  C5' A   B  54      -6.023 -11.735  17.091  0.00  0.00    +0.000 C 
BRANCH 362 363
ATOM    363  C4' A   B  54      -5.128 -12.953  17.176  0.00  0.00    +0.000 C 
ATOM    364  O4' A   B  54      -4.087 -12.741  18.168  0.00  0.00    +0.000 OA
ATOM    365  C3' A   B  54      -5.786 -14.240  17.625  0.00  0.00    +0.000 C 
ATOM    366  C2' A   B  54      -4.586 -15.053  18.083  0.00  0.00    +0.000 C 
ATOM    367  C1' A   B  54      -3.739 -13.976  18.760  0.00  0.00    +0.000 C 
BRANCH 367 368
ATOM    368  N9  A   B  54      -3.988 -13.911  20.208  0.00  0.00    +0.000 N 
ATOM    369  C8  A   B  54      -4.712 -12.982  20.911  0.00  0.00    +0.000 A 
ATOM    370  N7  A   B  54      -4.740 -13.214  22.203  0.00  0.00    +0.000 NA
ATOM    371  C5  A   B  54      -3.991 -14.371  22.357  0.00  0.00    +0.000 A 
ATOM    372  C6  A   B  54      -3.641 -15.136  23.479  0.00  0.00    +0.000 A 
ATOM    373  N6  A   B  54      -4.026 -14.833  24.724  0.00  0.00    +0.000 N 
ATOM    374  N1  A   B  54      -2.884 -16.234  23.286  0.00  0.00    +0.000 NA
ATOM    375  C2  A   B  54      -2.503 -16.537  22.041  0.00  0.00    +0.000 A 
ATOM    376  N3  A   B  54      -2.764 -15.896  20.904  0.00  0.00    +0.000 NA
ATOM    377  C4  A   B  54      -3.522 -14.811  21.135  0.00  0.00    +0.000 A 
ATOM    378  H   A   B  54      -4.579 -14.035  24.888  0.00  0.00    +0.000 HD
ATOM    379  H   A   B  54      -3.756 -15.408  25.476  0.00  0.00    +0.000 HD
ENDBRANCH 367 368
BRANCH 366 380
ATOM    380  O2' A   B  54      -3.861 -15.588  16.992  0.00  0.00    +0.000 OA
ATOM    381  H   A   B  54      -3.590 -14.869  16.400  0.00  0.00    +0.000 HD
ENDBRANCH 366 380
BRANCH 365 382
ATOM    382  O3' A   B  54      -6.532 -14.865  16.591  0.00  0.00    +0.000 OA
BRANCH 382 383
ATOM    383  P   A   B  55      -7.762 -15.811  16.952  0.00  0.00    +0.000 P 
ATOM    384  OP1 A   B  55      -8.474 -16.123  15.687  0.00  0.00    +0.000 OA
BRANCH 383 385
ATOM    385  OP2 A   B  55      -8.507 -15.221  18.092  0.00  0.00    +0.000 OA
ATOM    386  H   A   B  55      -8.946 -14.406  17.804  0.00  0.00    +0.000 HD
ENDBRANCH 383 385
BRANCH 383 387
ATOM    387  O5' A   B  55      -7.057 -17.145  17.466  0.00  0.00    +0.000 OA
BRANCH 387 388
ATOM    388  C5' A   B  55      -6.187 -17.880  16.613  0.00  0.00    +0.000 C 
BRANCH 388 389
ATOM    389  C4' A   B  55      -5.382 -18.889  17.395  0.00  0.00    +0.000 C 
ATOM    390  O4' A   B  55      -4.643 -18.223  18.451  0.00  0.00    +0.000 OA
ATOM    391  C3' A   B  55      -6.179 -19.949  18.123  0.00  0.00    +0.000 C 
ATOM    392  C2' A   B  55      -5.198 -20.404  19.192  0.00  0.00    +0.000 C 
ATOM    393  C1' A   B  55      -4.525 -19.084  19.569  0.00  0.00    +0.000 C 
BRANCH 393 394
ATOM    394  N9  A   B  55      -5.142 -18.442  20.739  0.00  0.00    +0.000 N 
ATOM    395  C8  A   B  55      -5.961 -17.340  20.769  0.00  0.00    +0.000 A 
ATOM    396  N7  A   B  55      -6.341 -17.005  21.979  0.00  0.00    +0.000 NA
ATOM    397  C5  A   B  55      -5.737 -17.947  22.796  0.00  0.00    +0.000 A 
ATOM    398  C6  A   B  55      -5.745 -18.141  24.185  0.00  0.00    +0.000 A 
ATOM    399  N6  A   B  55      -6.419 -17.356  25.033  0.00  0.00    +0.000 N 
ATOM    400  N1  A   B  55      -5.039 -19.175  24.679  0.00  0.00    +0.000 NA
ATOM    401  C2  A   B  55      -4.366 -19.960  23.830  0.00  0.00    +0.000 A 
ATOM    402  N3  A   B  55      -4.277 -19.877  22.505  0.00  0.00    +0.000 NA
ATOM    403  C4  A   B  55      -4.995 -18.838  22.045  0.00  0.00    +0.000 A 
ATOM    404  H   A   B  55      -6.941 -16.595  24.690  0.00  0.00    +0.000 HD
ATOM    405  H   A   B  55      -6.393 -17.539  26.000  0.00  0.00    +0.000 HD
ENDBRANCH 393 394
BRANCH 392 406
ATOM    406  O2' A   B  55      -4.223 -21.289  18.673  0.00  0.00    +0.000 OA
ATOM    407  H   A   B  55      -3.759 -20.863  17.935  0.00  0.00    +0.000 HD
ENDBRANCH 392 406
BRANCH 391 408
ATOM    408  O3' A   B  55      -6.594 -20.995  17.256  0.00  0.00    +0.000 OA
BRANCH 408 409
ATOM    409  P   A   B  56      -7.916 -21.810  17.567  0.00  0.00    +0.000 P 
ATOM    410  OP1 A   B  56      -8.212 -22.653  16.382  0.00  0.00    +0.000 OA
BRANCH 409 411
ATOM    411  OP2 A   B  56      -8.950 -20.876  18.089  0.00  0.00    +0.000 OA
ATOM    412  H   A   B  56      -9.238 -20.283  17.378  0.00  0.00    +0.000 HD
ENDBRANCH 409 411
BRANCH 409 413
ATOM    413  O5' A   B  56      -7.471 -22.762  18.759  0.00  0.00    +0.000 OA
BRANCH 413 414
ATOM    414  C5' A   B  56      -6.394 -23.677  18.597  0.00  0.00    +0.000 C 
BRANCH 414 415
ATOM    415  C4' A   B  56      -6.045 -24.335  19.908  0.00  0.00    +0.000 C 
ATOM    416  O4' A   B  56      -5.542 -23.343  20.841  0.00  0.00    +0.000 OA
ATOM    417  C3' A   B  56      -7.204 -24.968  20.642  0.00  0.00    +0.000 C 
ATOM    418  C2' A   B  56      -6.710 -24.990  22.081  0.00  0.00    +0.000 C 
ATOM    419  C1' A   B  56      -5.940 -23.668  22.156  0.00  0.00    +0.000 C 
BRANCH 419 420
ATOM    420  N9  A   B  56      -6.742 -22.557  22.691  0.00  0.00    +0.000 N 
ATOM    421  C8  A   B  56      -7.402 -21.578  21.995  0.00  0.00    +0.000 A 
ATOM    422  N7  A   B  56      -8.021 -20.713  22.761  0.00  0.00    +0.000 NA
ATOM    423  C5  A   B  56      -7.751 -21.151  24.049  0.00  0.00    +0.000 A 
ATOM    424  C6  A   B  56      -8.119 -20.663  25.309  0.00  0.00    +0.000 A 
ATOM    425  N6  A   B  56      -8.877 -19.571  25.486  0.00  0.00    +0.000 N 
ATOM    426  N1  A   B  56      -7.686 -21.333  26.391  0.00  0.00    +0.000 NA
ATOM    427  C2  A   B  56      -6.931 -22.422  26.214  0.00  0.00    +0.000 A 
ATOM    428  N3  A   B  56      -6.516 -22.979  25.078  0.00  0.00    +0.000 NA
ATOM    429  C4  A   B  56      -6.966 -22.287  24.020  0.00  0.00    +0.000 A 
ATOM    430  H   A   B  56      -9.204 -19.067  24.706  0.00  0.00    +0.000 HD
ATOM    431  H   A   B  56      -9.107 -19.273  26.396  0.00  0.00    +0.000 HD
ENDBRANCH 419 420
BRANCH 418 432
ATOM    432  O2' A   B  56      -5.817 -26.061  22.312  0.00  0.00    +0.000 OA
ATOM    433  H   A   B  56      -5.077 -26.005  21.688  0.00  0.00    +0.000 HD
ENDBRANCH 418 432
BRANCH 417 434
ATOM    434  O3' A   B  56      -7.513 -26.256  20.125  0.00  0.00    +0.000 OA
BRANCH 434 435
ATOM    435  P   A   B  57      -9.028 -26.715  19.983  0.00  0.00    +0.000 P 
ATOM    436  OP1 A   B  57      -9.043 -27.969  19.193  0.00  0.00    +0.000 OA
BRANCH 435 437
ATOM    437  OP2 A   B  57      -9.847 -25.553  19.545  0.00  0.00    +0.000 OA
ATOM    438  H   A   B  57      -9.621 -25.325  18.630  0.00  0.00    +0.000 HD
ENDBRANCH 435 437
BRANCH 435 439
ATOM    439  O5' A   B  57      -9.424 -27.059  21.483  0.00  0.00    +0.000 OA
BRANCH 439 440
ATOM    440  C5' A   B  57      -8.684 -28.026  22.218  0.00  0.00    +0.000 C 
BRANCH 440 441
ATOM    441  C4' A   B  57      -9.108 -28.050  23.665  0.00  0.00    +0.000 C 
ATOM    442  O4' A   B  57      -8.646 -26.847  24.336  0.00  0.00    +0.000 OA
ATOM    443  C3' A   B  57     -10.596 -28.039  23.908  0.00  0.00    +0.000 C 
ATOM    444  C2' A   B  57     -10.684 -27.529  25.338  0.00  0.00    +0.000 C 
ATOM    445  C1' A   B  57      -9.552 -26.494  25.356  0.00  0.00    +0.000 C 
BRANCH 445 446
ATOM    446  N9  A   B  57     -10.040 -25.128  25.111  0.00  0.00    +0.000 N 
ATOM    447  C8  A   B  57     -10.272 -24.506  23.915  0.00  0.00    +0.000 A 
ATOM    448  N7  A   B  57     -10.721 -23.279  24.042  0.00  0.00    +0.000 NA
ATOM    449  C5  A   B  57     -10.786 -23.083  25.415  0.00  0.00    +0.000 A 
ATOM    450  C6  A   B  57     -11.182 -21.990  26.198  0.00  0.00    +0.000 A 
ATOM    451  N6  A   B  57     -11.615 -20.830  25.683  0.00  0.00    +0.000 N 
ATOM    452  N1  A   B  57     -11.123 -22.123  27.534  0.00  0.00    +0.000 NA
ATOM    453  C2  A   B  57     -10.694 -23.282  28.044  0.00  0.00    +0.000 A 
ATOM    454  N3  A   B  57     -10.295 -24.385  27.412  0.00  0.00    +0.000 NA
ATOM    455  C4  A   B  57     -10.367 -24.218  26.083  0.00  0.00    +0.000 A 
ATOM    456  H   A   B  57     -11.665 -20.713  24.707  0.00  0.00    +0.000 HD
ATOM    457  H   A   B  57     -11.883 -20.095  26.281  0.00  0.00    +0.000 HD
ENDBRANCH 445 446
BRANCH 444 458
ATOM    458  O2' A   B  57     -10.405 -28.546  26.284  0.00  0.00    +0.000 OA
ATOM    459  H   A   B  57      -9.530 -28.924  26.104  0.00  0.00    +0.000 HD
ENDBRANCH 444 458
BRANCH 443 460
ATOM    460  O3' A   B  57     -11.184 -29.324  23.735  0.00  0.00    +0.000 OA
BRANCH 460 461
ATOM    461  P   C   B  58     -12.086 -29.616  22.486  0.00  0.00    +0.000 P 
ATOM    462  OP1 C   B  58     -11.237 -30.167  21.399  0.00  0.00    +0.000 OA
BRANCH 461 463
ATOM    463  OP2 C   B  58     -12.943 -28.425  22.217  0.00  0.00    +0.000 OA
ATOM    464  H   C   B  58     -13.504 -28.598  21.445  0.00  0.00    +0.000 HD
ENDBRANCH 461 463
BRANCH 461 465
ATOM    465  O5' C   B  58     -13.018 -30.778  23.020  0.00  0.00    +0.000 OA
BRANCH 465 466
ATOM    466  C5' C   B  58     -12.466 -32.001  23.509  0.00  0.00    +0.000 C 
BRANCH 466 467
ATOM    467  C4' C   B  58     -13.531 -32.802  24.200  0.00  0.00    +0.000 C 
ATOM    468  O4' C   B  58     -13.766 -32.265  25.525  0.00  0.00    +0.000 OA
ATOM    469  C3' C   B  58     -14.890 -32.761  23.539  0.00  0.00    +0.000 C 
ATOM    470  C2' C   B  58     -15.835 -33.064  24.687  0.00  0.00    +0.000 C 
ATOM    471  C1' C   B  58     -15.140 -32.349  25.848  0.00  0.00    +0.000 C 
BRANCH 471 472
ATOM    472  N1  C   B  58     -15.640 -30.981  26.089  0.00  0.00    +0.000 N 
ATOM    473  C2  C   B  58     -16.892 -30.802  26.694  0.00  0.00    +0.000 A 
ATOM    474  O2  C   B  58     -17.559 -31.802  27.003  0.00  0.00    +0.000 OA
ATOM    475  N3  C   B  58     -17.348 -29.549  26.929  0.00  0.00    +0.000 NA
ATOM    476  C4  C   B  58     -16.609 -28.494  26.588  0.00  0.00    +0.000 A 
ATOM    477  N4  C   B  58     -17.095 -27.279  26.839  0.00  0.00    +0.000 N 
ATOM    478  C5  C   B  58     -15.335 -28.642  25.978  0.00  0.00    +0.000 A 
ATOM    479  C6  C   B  58     -14.895 -29.888  25.748  0.00  0.00    +0.000 A 
ATOM    480  H   C   B  58     -16.572 -26.480  26.598  0.00  0.00    +0.000 HD
ATOM    481  H   C   B  58     -17.977 -27.180  27.265  0.00  0.00    +0.000 HD
ENDBRANCH 471 472
BRANCH 470 482
ATOM    482  O2' C   B  58     -15.896 -34.449  24.967  0.00  0.00    +0.000 OA
ATOM    483  H   C   B  58     -15.004 -34.781  25.153  0.00  0.00    +0.000 HD
ENDBRANCH 470 482
BRANCH 469 484
ATOM    484  O3' C   B  58     -14.979 -33.687  22.466  0.00  0.00    +0.000 OA
BRANCH 484 485
ATOM    485  P   A   B  59     -15.459 -33.219  21.018  0.00  0.00    +0.000 P 
ATOM    486  OP1 A   B  59     -15.177 -34.304  20.045  0.00  0.00    +0.000 OA
BRANCH 485 487
ATOM    487  OP2 A   B  59     -14.958 -31.849  20.757  0.00  0.00    +0.000 OA
ATOM    488  H   A   B  59     -15.248 -31.561  19.877  0.00  0.00    +0.000 HD
ENDBRANCH 485 487
BRANCH 485 489
ATOM    489  O5' A   B  59     -17.030 -33.139  21.229  0.00  0.00    +0.000 OA
BRANCH 489 490
ATOM    490  C5' A   B  59     -17.774 -34.295  21.601  0.00  0.00    +0.000 C 
BRANCH 490 491
ATOM    491  C4' A   B  59     -19.149 -33.912  22.075  0.00  0.00    +0.000 C 
ATOM    492  O4' A   B  59     -19.051 -33.186  23.326  0.00  0.00    +0.000 OA
ATOM    493  C3' A   B  59     -19.916 -32.970  21.171  0.00  0.00    +0.000 C 
ATOM    494  C2' A   B  59     -20.916 -32.349  22.133  0.00  0.00    +0.000 C 
ATOM    495  C1' A   B  59     -20.064 -32.204  23.389  0.00  0.00    +0.000 C 
BRANCH 495 496
ATOM    496  N9  A   B  59     -19.432 -30.880  23.481  0.00  0.00    +0.000 N 
ATOM    497  C8  A   B  59     -18.159 -30.527  23.125  0.00  0.00    +0.000 A 
ATOM    498  N7  A   B  59     -17.888 -29.259  23.328  0.00  0.00    +0.000 NA
ATOM    499  C5  A   B  59     -19.062 -28.746  23.857  0.00  0.00    +0.000 A 
ATOM    500  C6  A   B  59     -19.424 -27.461  24.289  0.00  0.00    +0.000 A 
ATOM    501  N6  A   B  59     -18.600 -26.408  24.248  0.00  0.00    +0.000 N 
ATOM    502  N1  A   B  59     -20.669 -27.288  24.761  0.00  0.00    +0.000 NA
ATOM    503  C2  A   B  59     -21.493 -28.342  24.796  0.00  0.00    +0.000 A 
ATOM    504  N3  A   B  59     -21.270 -29.597  24.421  0.00  0.00    +0.000 NA
ATOM    505  C4  A   B  59     -20.019 -29.734  23.955  0.00  0.00    +0.000 A 
ATOM    506  H   A   B  59     -17.683 -26.514  23.905  0.00  0.00    +0.000 HD
ATOM    507  H   A   B  59     -18.911 -25.528  24.560  0.00  0.00    +0.000 HD
ENDBRANCH 495 496
BRANCH 494 508
ATOM    508  O2' A   B  59     -22.001 -33.215  22.410  0.00  0.00    +0.000 OA
ATOM    509  H   A   B  59     -21.663 -34.055  22.757  0.00  0.00    +0.000 HD
ENDBRANCH 494 508
BRANCH 493 510
ATOM    510  O3' A   B  59     -20.521 -33.643  20.075  0.00  0.00    +0.000 OA
BRANCH 510 511
ATOM    511  P   G   B  60     -20.644 -32.925  18.661  0.00  0.00    +0.000 P 
ATOM    512  OP1 G   B  60     -21.015 -33.952  17.655  0.00  0.00    +0.000 OA
BRANCH 511 513
ATOM    513  OP2 G   B  60     -19.448 -32.075  18.442  0.00  0.00    +0.000 OA
ATOM    514  H   G   B  60     -19.518 -31.634  17.581  0.00  0.00    +0.000 HD
ENDBRANCH 511 513
BRANCH 511 515
ATOM    515  O5' G   B  60     -21.898 -31.969  18.877  0.00  0.00    +0.000 OA
BRANCH 515 516
ATOM    516  C5' G   B  60     -23.180 -32.508  19.189  0.00  0.00    +0.000 C 
BRANCH 516 517
ATOM    517  C4' G   B  60     -24.095 -31.442  19.738  0.00  0.00    +0.000 C 
ATOM    518  O4' G   B  60     -23.533 -30.891  20.955  0.00  0.00    +0.000 OA
ATOM    519  C3' G   B  60     -24.306 -30.230  18.858  0.00  0.00    +0.000 C 
ATOM    520  C2' G   B  60     -24.754 -29.186  19.865  0.00  0.00    +0.000 C 
ATOM    521  C1' G   B  60     -23.864 -29.522  21.056  0.00  0.00    +0.000 C 
BRANCH 521 522
ATOM    522  N9  G   B  60     -22.626 -28.728  21.056  0.00  0.00    +0.000 N 
ATOM    523  C8  G   B  60     -21.380 -29.115  20.631  0.00  0.00    +0.000 A 
ATOM    524  N7  G   B  60     -20.485 -28.178  20.755  0.00  0.00    +0.000 NA
ATOM    525  C5  G   B  60     -21.178 -27.105  21.297  0.00  0.00    +0.000 A 
ATOM    526  C6  G   B  60     -20.735 -25.809  21.655  0.00  0.00    +0.000 A 
ATOM    527  O6  G   B  60     -19.596 -25.331  21.560  0.00  0.00    +0.000 OA
ATOM    528  N1  G   B  60     -21.767 -25.038  22.164  0.00  0.00    +0.000 NA
ATOM    529  C2  G   B  60     -23.063 -25.458  22.314  0.00  0.00    +0.000 A 
ATOM    530  N2  G   B  60     -23.921 -24.569  22.828  0.00  0.00    +0.000 N 
ATOM    531  N3  G   B  60     -23.493 -26.662  21.986  0.00  0.00    +0.000 N 
ATOM    532  C4  G   B  60     -22.501 -27.431  21.487  0.00  0.00    +0.000 A 
ATOM    533  H   G   B  60     -24.865 -24.815  22.959  0.00  0.00    +0.000 HD
ATOM    534  H   G   B  60     -23.608 -23.669  23.076  0.00  0.00    +0.000 HD
ATOM    535  H   G   B  60     -24.424 -26.963  22.092  0.00  0.00    +0.000 HD
ENDBRANCH 521 522
BRANCH 520 536
ATOM    536  O2' G   B  60     -26.110 -29.354  20.238  0.00  0.00    +0.000 OA
ATOM    537  H   G   B  60     -26.241 -30.250  20.585  0.00  0.00    +0.000 HD
ENDBRANCH 520 536
BRANCH 519 538
ATOM    538  O3' G   B  60     -25.252 -30.465  17.821  0.00  0.00    +0.000 OA
BRANCH 538 539
ATOM    539  P   A   B  61     -25.123 -29.710  16.425  0.00  0.00    +0.000 P 
ATOM    540  OP1 A   B  61     -26.094 -30.312  15.481  0.00  0.00    +0.000 OA
BRANCH 539 541
ATOM    541  OP2 A   B  61     -23.685 -29.630  16.059  0.00  0.00    +0.000 OA
ATOM    542  H   A   B  61     -23.593 -29.172  15.209  0.00  0.00    +0.000 HD
ENDBRANCH 539 541
BRANCH 539 543
ATOM    543  O5' A   B  61     -25.619 -28.240  16.778  0.00  0.00    +0.000 OA
BRANCH 543 544
ATOM    544  C5' A   B  61     -26.954 -28.006  17.218  0.00  0.00    +0.000 C 
BRANCH 544 545
ATOM    545  C4' A   B  61     -27.108 -26.612  17.769  0.00  0.00    +0.000 C 
ATOM    546  O4' A   B  61     -26.228 -26.430  18.909  0.00  0.00    +0.000 OA
ATOM    547  C3' A   B  61     -26.724 -25.484  16.836  0.00  0.00    +0.000 C 
ATOM    548  C2' A   B  61     -26.456 -24.347  17.809  0.00  0.00    +0.000 C 
ATOM    549  C1' A   B  61     -25.768 -25.092  18.948  0.00  0.00    +0.000 C 
BRANCH 549 550
ATOM    550  N9  A   B  61     -24.306 -25.088  18.800  0.00  0.00    +0.000 N 
ATOM    551  C8  A   B  61     -23.502 -26.084  18.315  0.00  0.00    +0.000 A 
ATOM    552  N7  A   B  61     -22.228 -25.775  18.304  0.00  0.00    +0.000 NA
ATOM    553  C5  A   B  61     -22.192 -24.488  18.819  0.00  0.00    +0.000 A 
ATOM    554  C6  A   B  61     -21.137 -23.595  19.068  0.00  0.00    +0.000 A 
ATOM    555  N1  A   B  61     -21.442 -22.389  19.583  0.00  0.00    +0.000 NA
ATOM    556  C2  A   B  61     -22.725 -22.109  19.832  0.00  0.00    +0.000 A 
ATOM    557  N3  A   B  61     -23.802 -22.861  19.643  0.00  0.00    +0.000 NA
ATOM    558  C4  A   B  61     -23.464 -24.054  19.126  0.00  0.00    +0.000 A 
BRANCH 554 559
ATOM    559  N6  A   B  61     -19.852 -23.879  18.813  0.00  0.00    +0.000 N 
ATOM    560  H   A   B  61     -19.607 -24.755  18.436  0.00  0.00    +0.000 HD
ATOM    561  H   A   B  61     -19.153 -23.212  19.002  0.00  0.00    +0.000 HD
ENDBRANCH 554 559
ENDBRANCH 549 550
BRANCH 548 562
ATOM    562  O2' A   B  61     -27.653 -23.768  18.294  0.00  0.00    +0.000 OA
ATOM    563  H   A   B  61     -28.201 -24.455  18.704  0.00  0.00    +0.000 HD
ENDBRANCH 548 562
BRANCH 547 564
ATOM    564  O3' A   B  61     -27.738 -25.191  15.881  0.00  0.00    +0.000 OA
BRANCH 564 565
ATOM    565  P   C   B  62     -27.350 -24.700  14.422  0.00  0.00    +0.000 P 
ATOM    566  OP1 C   B  62     -28.580 -24.716  13.590  0.00  0.00    +0.000 OA
BRANCH 565 567
ATOM    567  OP2 C   B  62     -26.142 -25.442  13.971  0.00  0.00    +0.000 OA
ATOM    568  H   C   B  62     -25.897 -25.149  13.080  0.00  0.00    +0.000 HD
ENDBRANCH 565 567
BRANCH 565 569
ATOM    569  O5' C   B  62     -26.930 -23.180  14.660  0.00  0.00    +0.000 OA
BRANCH 569 570
ATOM    570  C5' C   B  62     -27.856 -22.235  15.191  0.00  0.00    +0.000 C 
BRANCH 570 571
ATOM    571  C4' C   B  62     -27.150 -20.993  15.674  0.00  0.00    +0.000 C 
ATOM    572  O4' C   B  62     -26.174 -21.339  16.694  0.00  0.00    +0.000 OA
ATOM    573  C3' C   B  62     -26.339 -20.243  14.642  0.00  0.00    +0.000 C 
ATOM    574  C2' C   B  62     -25.384 -19.437  15.514  0.00  0.00    +0.000 C 
ATOM    575  C1' C   B  62     -25.077 -20.445  16.623  0.00  0.00    +0.000 C 
BRANCH 575 576
ATOM    576  N1  C   B  62     -23.842 -21.215  16.352  0.00  0.00    +0.000 N 
ATOM    577  C2  C   B  62     -22.608 -20.620  16.638  0.00  0.00    +0.000 A 
ATOM    578  O2  C   B  62     -22.592 -19.472  17.111  0.00  0.00    +0.000 OA
ATOM    579  N3  C   B  62     -21.465 -21.302  16.395  0.00  0.00    +0.000 NA
ATOM    580  C4  C   B  62     -21.522 -22.532  15.887  0.00  0.00    +0.000 A 
ATOM    581  N4  C   B  62     -20.369 -23.166  15.663  0.00  0.00    +0.000 N 
ATOM    582  C5  C   B  62     -22.761 -23.164  15.588  0.00  0.00    +0.000 A 
ATOM    583  C6  C   B  62     -23.885 -22.479  15.836  0.00  0.00    +0.000 A 
ATOM    584  H   C   B  62     -20.373 -24.076  15.288  0.00  0.00    +0.000 HD
ATOM    585  H   C   B  62     -19.515 -22.723  15.873  0.00  0.00    +0.000 HD
ENDBRANCH 575 576
BRANCH 574 586
ATOM    586  O2' C   B  62     -26.012 -18.304  16.085  0.00  0.00    +0.000 OA
ATOM    587  H   C   B  62     -26.790 -18.586  16.590  0.00  0.00    +0.000 HD
ENDBRANCH 574 586
BRANCH 573 588
ATOM    588  O3' C   B  62     -27.145 -19.435  13.791  0.00  0.00    +0.000 OA
BRANCH 588 589
ATOM    589  P   U   B  63     -26.698 -19.177  12.290  0.00  0.00    +0.000 P 
ATOM    590  OP1 U   B  63     -27.825 -18.515  11.593  0.00  0.00    +0.000 OA
BRANCH 589 591
ATOM    591  OP2 U   B  63     -26.118 -20.429  11.734  0.00  0.00    +0.000 OA
ATOM    592  H   U   B  63     -25.843 -20.278  10.816  0.00  0.00    +0.000 HD
ENDBRANCH 589 591
BRANCH 589 593
ATOM    593  O5' U   B  63     -25.518 -18.116  12.449  0.00  0.00    +0.000 OA
BRANCH 593 594
ATOM    594  C5' U   B  63     -25.758 -16.833  13.013  0.00  0.00    +0.000 C 
BRANCH 594 595
ATOM    595  C4' U   B  63     -24.466 -16.139  13.367  0.00  0.00    +0.000 C 
ATOM    596  O4' U   B  63     -23.711 -16.940  14.316  0.00  0.00    +0.000 OA
ATOM    597  C3' U   B  63     -23.495 -15.920  12.231  0.00  0.00    +0.000 C 
ATOM    598  C2' U   B  63     -22.178 -15.728  12.977  0.00  0.00    +0.000 C 
ATOM    599  C1' U   B  63     -22.325 -16.751  14.103  0.00  0.00    +0.000 C 
BRANCH 599 600
ATOM    600  N1  U   B  63     -21.704 -18.050  13.757  0.00  0.00    +0.000 N 
ATOM    601  C2  U   B  63     -20.326 -18.151  13.871  0.00  0.00    +0.000 A 
ATOM    602  O2  U   B  63     -19.625 -17.226  14.242  0.00  0.00    +0.000 OA
ATOM    603  N3  U   B  63     -19.800 -19.374  13.536  0.00  0.00    +0.000 N 
ATOM    604  C4  U   B  63     -20.493 -20.481  13.107  0.00  0.00    +0.000 A 
ATOM    605  O4  U   B  63     -19.875 -21.511  12.842  0.00  0.00    +0.000 OA
ATOM    606  C5  U   B  63     -21.908 -20.300  13.015  0.00  0.00    +0.000 A 
ATOM    607  C6  U   B  63     -22.450 -19.119  13.336  0.00  0.00    +0.000 A 
ATOM    608  H   U   B  63     -18.823 -19.468  13.611  0.00  0.00    +0.000 HD
ENDBRANCH 599 600
BRANCH 598 609
ATOM    609  O2' U   B  63     -22.072 -14.437  13.541  0.00  0.00    +0.000 OA
ATOM    610  H   U   B  63     -22.830 -14.276  14.125  0.00  0.00    +0.000 HD
ENDBRANCH 598 609
BRANCH 597 611
ATOM    611  O3' U   B  63     -23.847 -14.816  11.409  0.00  0.00    +0.000 OA
BRANCH 611 612
ATOM    612  P   A   B  64     -23.462 -14.821   9.864  0.00  0.00    +0.000 P 
ATOM    613  OP1 A   B  64     -24.117 -13.655   9.227  0.00  0.00    +0.000 OA
BRANCH 612 614
ATOM    614  OP2 A   B  64     -23.694 -16.184   9.324  0.00  0.00    +0.000 OA
ATOM    615  H   A   B  64     -23.463 -16.202   8.382  0.00  0.00    +0.000 HD
ENDBRANCH 612 614
BRANCH 612 616
ATOM    616  O5' A   B  64     -21.891 -14.558   9.884  0.00  0.00    +0.000 OA
BRANCH 616 617
ATOM    617  C5' A   B  64     -21.365 -13.332  10.376  0.00  0.00    +0.000 C 
BRANCH 617 618
ATOM    618  C4' A   B  64     -19.874 -13.433  10.605  0.00  0.00    +0.000 C 
ATOM    619  O4' A   B  64     -19.589 -14.512  11.536  0.00  0.00    +0.000 OA
ATOM    620  C3' A   B  64     -19.036 -13.773   9.391  0.00  0.00    +0.000 C 
ATOM    621  C2' A   B  64     -17.773 -14.337  10.028  0.00  0.00    +0.000 C 
ATOM    622  C1' A   B  64     -18.357 -15.117  11.201  0.00  0.00    +0.000 C 
BRANCH 622 623
ATOM    623  N9  A   B  64     -18.592 -16.527  10.860  0.00  0.00    +0.000 N 
ATOM    624  C8  A   B  64     -19.789 -17.144  10.605  0.00  0.00    +0.000 A 
ATOM    625  N7  A   B  64     -19.675 -18.420  10.330  0.00  0.00    +0.000 NA
ATOM    626  C5  A   B  64     -18.313 -18.660  10.409  0.00  0.00    +0.000 A 
ATOM    627  C6  A   B  64     -17.543 -19.818  10.224  0.00  0.00    +0.000 A 
ATOM    628  N1  A   B  64     -16.211 -19.716  10.376  0.00  0.00    +0.000 NA
ATOM    629  C2  A   B  64     -15.693 -18.528  10.695  0.00  0.00    +0.000 A 
ATOM    630  N3  A   B  64     -16.310 -17.368  10.895  0.00  0.00    +0.000 NA
ATOM    631  C4  A   B  64     -17.635 -17.504  10.735  0.00  0.00    +0.000 A 
BRANCH 627 632
ATOM    632  N6  A   B  64     -18.068 -21.008   9.903  0.00  0.00    +0.000 N 
ATOM    633  H   A   B  64     -17.481 -21.789   9.785  0.00  0.00    +0.000 HD
ATOM    634  H   A   B  64     -19.041 -21.101   9.785  0.00  0.00    +0.000 HD
ENDBRANCH 627 632
ENDBRANCH 622 623
BRANCH 621 635
ATOM    635  O2' A   B  64     -16.929 -13.316  10.530  0.00  0.00    +0.000 OA
ATOM    636  H   A   B  64     -17.423 -12.770  11.161  0.00  0.00    +0.000 HD
ENDBRANCH 621 635
BRANCH 620 637
ATOM    637  O3' A   B  64     -18.800 -12.645   8.562  0.00  0.00    +0.000 OA
BRANCH 637 638
ATOM    638  P   C   B  65     -18.658 -12.823   6.996  0.00  0.00    +0.000 P 
ATOM    639  OP1 C   B  65     -18.664 -11.469   6.389  0.00  0.00    +0.000 OA
BRANCH 638 640
ATOM    640  OP2 C   B  65     -19.640 -13.840   6.540  0.00  0.00    +0.000 OA
ATOM    641  H   C   B  65     -19.562 -13.957   5.580  0.00  0.00    +0.000 HD
ENDBRANCH 638 640
BRANCH 638 642
ATOM    642  O5' C   B  65     -17.193 -13.436   6.830  0.00  0.00    +0.000 OA
BRANCH 642 643
ATOM    643  C5' C   B  65     -16.040 -12.710   7.234  0.00  0.00    +0.000 C 
BRANCH 643 644
ATOM    644  C4' C   B  65     -14.821 -13.598   7.269  0.00  0.00    +0.000 C 
ATOM    645  O4' C   B  65     -15.039 -14.706   8.186  0.00  0.00    +0.000 OA
ATOM    646  C3' C   B  65     -14.453 -14.270   5.964  0.00  0.00    +0.000 C 
ATOM    647  C2' C   B  65     -13.610 -15.452   6.444  0.00  0.00    +0.000 C 
ATOM    648  C1' C   B  65     -14.366 -15.855   7.710  0.00  0.00    +0.000 C 
BRANCH 648 649
ATOM    649  N1  C   B  65     -15.358 -16.922   7.458  0.00  0.00    +0.000 N 
ATOM    650  C2  C   B  65     -14.913 -18.240   7.332  0.00  0.00    +0.000 A 
ATOM    651  O2  C   B  65     -13.698 -18.479   7.436  0.00  0.00    +0.000 OA
ATOM    652  N3  C   B  65     -15.812 -19.227   7.100  0.00  0.00    +0.000 NA
ATOM    653  C4  C   B  65     -17.112 -18.941   6.995  0.00  0.00    +0.000 A 
ATOM    654  N4  C   B  65     -17.959 -19.944   6.766  0.00  0.00    +0.000 N 
ATOM    655  C5  C   B  65     -17.591 -17.609   7.121  0.00  0.00    +0.000 A 
ATOM    656  C6  C   B  65     -16.693 -16.643   7.352  0.00  0.00    +0.000 A 
ATOM    657  H   C   B  65     -17.620 -20.864   6.680  0.00  0.00    +0.000 HD
ATOM    658  H   C   B  65     -18.923 -19.765   6.683  0.00  0.00    +0.000 HD
ENDBRANCH 648 649
BRANCH 647 659
ATOM    659  O2' C   B  65     -12.298 -15.062   6.790  0.00  0.00    +0.000 OA
ATOM    660  H   C   B  65     -12.335 -14.364   7.463  0.00  0.00    +0.000 HD
ENDBRANCH 647 659
BRANCH 646 661
ATOM    661  O3' C   B  65     -13.753 -13.402   5.076  0.00  0.00    +0.000 OA
BRANCH 661 662
ATOM    662  P   A   B  66     -13.930 -13.526   3.509  0.00  0.00    +0.000 P 
ATOM    663  OP1 A   B  66     -13.254 -12.371   2.867  0.00  0.00    +0.000 OA
BRANCH 662 664
ATOM    664  OP2 A   B  66     -15.359 -13.797   3.214  0.00  0.00    +0.000 OA
ATOM    665  H   A   B  66     -15.482 -13.875   2.255  0.00  0.00    +0.000 HD
ENDBRANCH 662 664
BRANCH 662 666
ATOM    666  O5' A   B  66     -13.101 -14.841   3.165  0.00  0.00    +0.000 OA
BRANCH 666 667
ATOM    667  C5' A   B  66     -11.695 -14.894   3.375  0.00  0.00    +0.000 C 
BRANCH 667 668
ATOM    668  C4' A   B  66     -11.191 -16.311   3.267  0.00  0.00    +0.000 C 
ATOM    669  O4' A   B  66     -11.828 -17.139   4.274  0.00  0.00    +0.000 OA
ATOM    670  C3' A   B  66     -11.492 -17.021   1.964  0.00  0.00    +0.000 C 
ATOM    671  C2' A   B  66     -11.388 -18.480   2.375  0.00  0.00    +0.000 C 
ATOM    672  C1' A   B  66     -12.019 -18.442   3.763  0.00  0.00    +0.000 C 
BRANCH 672 673
ATOM    673  N9  A   B  66     -13.460 -18.726   3.720  0.00  0.00    +0.000 N 
ATOM    674  C8  A   B  66     -14.500 -17.840   3.781  0.00  0.00    +0.000 A 
ATOM    675  N7  A   B  66     -15.679 -18.407   3.714  0.00  0.00    +0.000 NA
ATOM    676  C5  A   B  66     -15.397 -19.756   3.598  0.00  0.00    +0.000 A 
ATOM    677  C6  A   B  66     -16.216 -20.890   3.486  0.00  0.00    +0.000 A 
ATOM    678  N1  A   B  66     -15.613 -22.091   3.387  0.00  0.00    +0.000 NA
ATOM    679  C2  A   B  66     -14.280 -22.143   3.404  0.00  0.00    +0.000 A 
ATOM    680  N3  A   B  66     -13.404 -21.148   3.504  0.00  0.00    +0.000 NA
ATOM    681  C4  A   B  66     -14.034 -19.968   3.600  0.00  0.00    +0.000 A 
BRANCH 677 682
ATOM    682  N6  A   B  66     -17.552 -20.833   3.470  0.00  0.00    +0.000 N 
ATOM    683  H   A   B  66     -18.079 -21.661   3.389  0.00  0.00    +0.000 HD
ATOM    684  H   A   B  66     -18.008 -19.963   3.539  0.00  0.00    +0.000 HD
ENDBRANCH 677 682
ENDBRANCH 672 673
BRANCH 671 685
ATOM    685  O2' A   B  66     -10.042 -18.903   2.493  0.00  0.00    +0.000 OA
ATOM    686  H   A   B  66      -9.577 -18.330   3.122  0.00  0.00    +0.000 HD
ENDBRANCH 671 685
BRANCH 670 687
ATOM    687  O3' A   B  66     -10.597 -16.658   0.918  0.00  0.00    +0.000 OA
BRANCH 687 688
ATOM    688  P   A   B  67     -11.089 -16.617  -0.594  0.00  0.00    +0.000 P 
ATOM    689  OP1 A   B  67     -10.011 -16.020  -1.416  0.00  0.00    +0.000 OA
BRANCH 688 690
ATOM    690  OP2 A   B  67     -12.452 -16.033  -0.633  0.00  0.00    +0.000 OA
ATOM    691  H   A   B  67     -12.764 -16.002  -1.551  0.00  0.00    +0.000 HD
ENDBRANCH 688 690
BRANCH 688 692
ATOM    692  O5' A   B  67     -11.204 -18.161  -0.970  0.00  0.00    +0.000 OA
BRANCH 692 693
ATOM    693  C5' A   B  67     -10.049 -18.989  -1.020  0.00  0.00    +0.000 C 
BRANCH 693 694
ATOM    694  C4' A   B  67     -10.428 -20.449  -1.002  0.00  0.00    +0.000 C 
ATOM    695  O4' A   B  67     -11.268 -20.725   0.146  0.00  0.00    +0.000 OA
ATOM    696  C3' A   B  67     -11.249 -20.938  -2.176  0.00  0.00    +0.000 C 
ATOM    697  C2' A   B  67     -11.891 -22.189  -1.599  0.00  0.00    +0.000 C 
ATOM    698  C1' A   B  67     -12.207 -21.731  -0.180  0.00  0.00    +0.000 C 
BRANCH 698 699
ATOM    699  N9  A   B  67     -13.564 -21.171  -0.079  0.00  0.00    +0.000 N 
ATOM    700  C8  A   B  67     -13.934 -19.855   0.003  0.00  0.00    +0.000 A 
ATOM    701  N7  A   B  67     -15.230 -19.681   0.072  0.00  0.00    +0.000 NA
ATOM    702  C5  A   B  67     -15.747 -20.964   0.032  0.00  0.00    +0.000 A 
ATOM    703  C6  A   B  67     -17.059 -21.462   0.069  0.00  0.00    +0.000 A 
ATOM    704  N6  A   B  67     -18.141 -20.676   0.152  0.00  0.00    +0.000 N 
ATOM    705  N1  A   B  67     -17.224 -22.797   0.008  0.00  0.00    +0.000 NA
ATOM    706  C2  A   B  67     -16.143 -23.576  -0.080  0.00  0.00    +0.000 A 
ATOM    707  N3  A   B  67     -14.862 -23.226  -0.122  0.00  0.00    +0.000 NA
ATOM    708  C4  A   B  67     -14.730 -21.891  -0.060  0.00  0.00    +0.000 A 
ATOM    709  H   A   B  67     -19.040 -21.077   0.175  0.00  0.00    +0.000 HD
ATOM    710  H   A   B  67     -18.037 -19.698   0.190  0.00  0.00    +0.000 HD
ENDBRANCH 698 699
BRANCH 697 711
ATOM    711  O2' A   B  67     -10.979 -23.276  -1.541  0.00  0.00    +0.000 OA
ATOM    712  H   A   B  67     -10.198 -23.016  -1.027  0.00  0.00    +0.000 HD
ENDBRANCH 697 711
BRANCH 696 713
ATOM    713  O3' A   B  67     -10.461 -21.183  -3.336  0.00  0.00    +0.000 OA
BRANCH 713 714
ATOM    714  P   A   B  68     -11.102 -21.039  -4.785  0.00  0.00    +0.000 P 
ATOM    715  OP1 A   B  68     -10.006 -21.113  -5.779  0.00  0.00    +0.000 OA
BRANCH 714 716
ATOM    716  OP2 A   B  68     -12.023 -19.874  -4.788  0.00  0.00    +0.000 OA
ATOM    717  H   A   B  68     -12.419 -19.778  -5.668  0.00  0.00    +0.000 HD
ENDBRANCH 714 716
BRANCH 714 718
ATOM    718  O5' A   B  68     -11.985 -22.356  -4.920  0.00  0.00    +0.000 OA
BRANCH 718 719
ATOM    719  C5' A   B  68     -11.384 -23.644  -4.873  0.00  0.00    +0.000 C 
BRANCH 719 720
ATOM    720  C4' A   B  68     -12.424 -24.721  -4.691  0.00  0.00    +0.000 C 
ATOM    721  O4' A   B  68     -13.220 -24.446  -3.511  0.00  0.00    +0.000 OA
ATOM    722  C3' A   B  68     -13.449 -24.840  -5.796  0.00  0.00    +0.000 C 
ATOM    723  C2' A   B  68     -14.592 -25.551  -5.093  0.00  0.00    +0.000 C 
ATOM    724  C1' A   B  68     -14.546 -24.893  -3.713  0.00  0.00    +0.000 C 
BRANCH 724 725
ATOM    725  N9  A   B  68     -15.458 -23.746  -3.614  0.00  0.00    +0.000 N 
ATOM    726  C8  A   B  68     -15.142 -22.414  -3.581  0.00  0.00    +0.000 A 
ATOM    727  N7  A   B  68     -16.184 -21.629  -3.490  0.00  0.00    +0.000 NA
ATOM    728  C5  A   B  68     -17.262 -22.502  -3.457  0.00  0.00    +0.000 A 
ATOM    729  C6  A   B  68     -18.645 -22.295  -3.363  0.00  0.00    +0.000 A 
ATOM    730  N6  A   B  68     -19.204 -21.081  -3.288  0.00  0.00    +0.000 N 
ATOM    731  N1  A   B  68     -19.440 -23.380  -3.359  0.00  0.00    +0.000 NA
ATOM    732  C2  A   B  68     -18.875 -24.589  -3.438  0.00  0.00    +0.000 A 
ATOM    733  N3  A   B  68     -17.592 -24.910  -3.527  0.00  0.00    +0.000 NA
ATOM    734  C4  A   B  68     -16.827 -23.807  -3.532  0.00  0.00    +0.000 A 
ATOM    735  H   A   B  68     -18.636 -20.277  -3.290  0.00  0.00    +0.000 HD
ATOM    736  H   A   B  68     -20.183 -20.992  -3.231  0.00  0.00    +0.000 HD
ENDBRANCH 724 725
BRANCH 723 737
ATOM    737  O2' A   B  68     -14.345 -26.940  -4.949  0.00  0.00    +0.000 OA
ATOM    738  H   A   B  68     -13.509 -27.072  -4.476  0.00  0.00    +0.000 HD
ENDBRANCH 723 737
BRANCH 722 739
ATOM    739  O3' A   B  68     -12.943 -25.552  -6.923  0.00  0.00    +0.000 OA
BRANCH 739 740
ATOM    740  P   A   B  69     -13.502 -25.263  -8.372  0.00  0.00    +0.000 P 
ATOM    741  OP1 A   B  69     -12.604 -25.925  -9.345  0.00  0.00    +0.000 OA
BRANCH 740 742
ATOM    742  OP2 A   B  69     -13.787 -23.809  -8.500  0.00  0.00    +0.000 OA
ATOM    743  H   A   B  69     -14.131 -23.624  -9.388  0.00  0.00    +0.000 HD
ENDBRANCH 740 742
BRANCH 740 744
ATOM    744  O5' A   B  69     -14.893 -26.033  -8.374  0.00  0.00    +0.000 OA
BRANCH 744 745
ATOM    745  C5' A   B  69     -14.951 -27.442  -8.174  0.00  0.00    +0.000 C 
BRANCH 745 746
ATOM    746  C4' A   B  69     -16.380 -27.896  -8.018  0.00  0.00    +0.000 C 
ATOM    747  O4' A   B  69     -16.969 -27.269  -6.849  0.00  0.00    +0.000 OA
ATOM    748  C3' A   B  69     -17.308 -27.509  -9.150  0.00  0.00    +0.000 C 
ATOM    749  C2' A   B  69     -18.668 -27.528  -8.476  0.00  0.00    +0.000 C 
ATOM    750  C1' A   B  69     -18.327 -26.967  -7.093  0.00  0.00    +0.000 C 
BRANCH 750 751
ATOM    751  N9  A   B  69     -18.506 -25.512  -7.011  0.00  0.00    +0.000 N 
ATOM    752  C8  A   B  69     -17.537 -24.546  -6.997  0.00  0.00    +0.000 A 
ATOM    753  N7  A   B  69     -18.009 -23.326  -6.908  0.00  0.00    +0.000 NA
ATOM    754  C5  A   B  69     -19.382 -23.501  -6.857  0.00  0.00    +0.000 A 
ATOM    755  C6  A   B  69     -20.447 -22.595  -6.756  0.00  0.00    +0.000 A 
ATOM    756  N6  A   B  69     -20.282 -21.266  -6.689  0.00  0.00    +0.000 N 
ATOM    757  N1  A   B  69     -21.694 -23.097  -6.732  0.00  0.00    +0.000 NA
ATOM    758  C2  A   B  69     -21.854 -24.420  -6.800  0.00  0.00    +0.000 A 
ATOM    759  N3  A   B  69     -20.934 -25.373  -6.896  0.00  0.00    +0.000 NA
ATOM    760  C4  A   B  69     -19.702 -24.841  -6.920  0.00  0.00    +0.000 A 
ATOM    761  H   A   B  69     -19.376 -20.881  -6.705  0.00  0.00    +0.000 HD
ATOM    762  H   A   B  69     -21.067 -20.675  -6.623  0.00  0.00    +0.000 HD
ENDBRANCH 750 751
BRANCH 749 763
ATOM    763  O2' A   B  69     -19.171 -28.847  -8.328  0.00  0.00    +0.000 OA
ATOM    764  H   A   B  69     -18.532 -29.383  -7.833  0.00  0.00    +0.000 HD
ENDBRANCH 749 763
BRANCH 748 765
ATOM    765  O3' A   B  69     -17.204 -28.408 -10.251  0.00  0.00    +0.000 OA
BRANCH 765 766
ATOM    766  P   A   B  70     -17.273 -27.888 -11.739  0.00  0.00    +0.000 P 
ATOM    767  OP1 A   B  70     -16.881 -28.995 -12.641  0.00  0.00    +0.000 OA
BRANCH 766 768
ATOM    768  OP2 A   B  70     -16.565 -26.584 -11.821  0.00  0.00    +0.000 OA
ATOM    769  H   A   B  70     -16.601 -26.254 -12.732  0.00  0.00    +0.000 HD
ENDBRANCH 766 768
BRANCH 766 770
ATOM    770  O5' A   B  70     -18.824 -27.615 -11.937  0.00  0.00    +0.000 OA
BRANCH 770 771
ATOM    771  C5' A   B  70     -19.776 -28.670 -11.834  0.00  0.00    +0.000 C 
BRANCH 771 772
ATOM    772  C4' A   B  70     -21.174 -28.115 -11.788  0.00  0.00    +0.000 C 
ATOM    773  O4' A   B  70     -21.351 -27.342 -10.572  0.00  0.00    +0.000 OA
ATOM    774  C3' A   B  70     -21.522 -27.144 -12.897  0.00  0.00    +0.000 C 
ATOM    775  C2' A   B  70     -22.639 -26.327 -12.277  0.00  0.00    +0.000 C 
ATOM    776  C1' A   B  70     -22.160 -26.212 -10.831  0.00  0.00    +0.000 C 
BRANCH 776 777
ATOM    777  N9  A   B  70     -21.357 -25.002 -10.597  0.00  0.00    +0.000 N 
ATOM    778  C8  A   B  70     -19.995 -24.899 -10.543  0.00  0.00    +0.000 A 
ATOM    779  N7  A   B  70     -19.567 -23.682 -10.315  0.00  0.00    +0.000 NA
ATOM    780  C5  A   B  70     -20.725 -22.932 -10.208  0.00  0.00    +0.000 A 
ATOM    781  C6  A   B  70     -20.950 -21.571  -9.967  0.00  0.00    +0.000 A 
ATOM    782  N6  A   B  70     -19.964 -20.679  -9.782  0.00  0.00    +0.000 N 
ATOM    783  N1  A   B  70     -22.223 -21.148  -9.925  0.00  0.00    +0.000 NA
ATOM    784  C2  A   B  70     -23.200 -22.037 -10.110  0.00  0.00    +0.000 A 
ATOM    785  N3  A   B  70     -23.114 -23.343 -10.344  0.00  0.00    +0.000 NA
ATOM    786  C4  A   B  70     -21.835 -23.734 -10.381  0.00  0.00    +0.000 A 
ATOM    787  H   A   B  70     -19.024 -20.971  -9.809  0.00  0.00    +0.000 HD
ATOM    788  H   A   B  70     -20.181 -19.733  -9.619  0.00  0.00    +0.000 HD
ENDBRANCH 776 777
BRANCH 775 789
ATOM    789  O2' A   B  70     -23.877 -27.012 -12.300  0.00  0.00    +0.000 OA
ATOM    790  H   A   B  70     -23.783 -27.866 -11.849  0.00  0.00    +0.000 HD
ENDBRANCH 775 789
BRANCH 774 791
ATOM    791  O3' A   B  70     -21.902 -27.813 -14.093  0.00  0.00    +0.000 OA
BRANCH 791 792
ATOM    792  P   U   B  71     -21.448 -27.274 -15.508  0.00  0.00    +0.000 P 
ATOM    793  OP1 U   B  71     -21.773 -28.307 -16.520  0.00  0.00    +0.000 OA
BRANCH 792 794
ATOM    794  OP2 U   B  71     -20.062 -26.753 -15.404  0.00  0.00    +0.000 OA
ATOM    795  H   U   B  71     -19.776 -26.420 -16.269  0.00  0.00    +0.000 HD
ENDBRANCH 792 794
BRANCH 792 796
ATOM    796  O5' U   B  71     -22.425 -26.043 -15.733  0.00  0.00    +0.000 OA
BRANCH 796 797
ATOM    797  C5' U   B  71     -23.831 -26.228 -15.804  0.00  0.00    +0.000 C 
BRANCH 797 798
ATOM    798  C4' U   B  71     -24.558 -24.912 -15.724  0.00  0.00    +0.000 C 
ATOM    799  O4' U   B  71     -24.300 -24.286 -14.440  0.00  0.00    +0.000 OA
ATOM    800  C3' U   B  71     -24.140 -23.865 -16.731  0.00  0.00    +0.000 C 
ATOM    801  C2' U   B  71     -24.598 -22.577 -16.064  0.00  0.00    +0.000 C 
ATOM    802  C1' U   B  71     -24.313 -22.880 -14.589  0.00  0.00    +0.000 C 
BRANCH 802 803
ATOM    803  N1  U   B  71     -23.018 -22.336 -14.138  0.00  0.00    +0.000 N 
ATOM    804  C2  U   B  71     -22.988 -21.003 -13.764  0.00  0.00    +0.000 A 
ATOM    805  O2  U   B  71     -23.973 -20.288 -13.795  0.00  0.00    +0.000 OA
ATOM    806  N3  U   B  71     -21.765 -20.537 -13.351  0.00  0.00    +0.000 N 
ATOM    807  C4  U   B  71     -20.591 -21.254 -13.276  0.00  0.00    +0.000 A 
ATOM    808  O4  U   B  71     -19.568 -20.691 -12.882  0.00  0.00    +0.000 OA
ATOM    809  C5  U   B  71     -20.702 -22.621 -13.679  0.00  0.00    +0.000 A 
ATOM    810  C6  U   B  71     -21.882 -23.103 -14.087  0.00  0.00    +0.000 A 
ATOM    811  H   U   B  71     -21.722 -19.592 -13.080  0.00  0.00    +0.000 HD
ENDBRANCH 802 803
BRANCH 801 812
ATOM    812  O2' U   B  71     -25.985 -22.359 -16.226  0.00  0.00    +0.000 OA
ATOM    813  H   U   B  71     -26.475 -23.121 -15.878  0.00  0.00    +0.000 HD
ENDBRANCH 801 812
BRANCH 800 814
ATOM    814  O3' U   B  71     -24.730 -24.075 -18.007  0.00  0.00    +0.000 OA
BRANCH 814 815
ATOM    815  P   C   B  72     -23.951 -23.659 -19.320  0.00  0.00    +0.000 P 
ATOM    816  OP1 C   B  72     -24.708 -24.189 -20.475  0.00  0.00    +0.000 OA
BRANCH 815 817
ATOM    817  OP2 C   B  72     -22.516 -23.997 -19.155  0.00  0.00    +0.000 OA
ATOM    818  H   C   B  72     -22.030 -23.745 -19.956  0.00  0.00    +0.000 HD
ENDBRANCH 815 817
BRANCH 815 819
ATOM    819  O5' C   B  72     -24.088 -22.075 -19.323  0.00  0.00    +0.000 OA
BRANCH 819 820
ATOM    820  C5' C   B  72     -25.364 -21.450 -19.416  0.00  0.00    +0.000 C 
BRANCH 820 821
ATOM    821  C4' C   B  72     -25.265 -19.968 -19.160  0.00  0.00    +0.000 C 
ATOM    822  O4' C   B  72     -24.741 -19.728 -17.831  0.00  0.00    +0.000 OA
ATOM    823  C3' C   B  72     -24.331 -19.203 -20.066  0.00  0.00    +0.000 C 
ATOM    824  C2' C   B  72     -24.020 -17.955 -19.243  0.00  0.00    +0.000 C 
ATOM    825  C1' C   B  72     -24.051 -18.496 -17.812  0.00  0.00    +0.000 C 
BRANCH 825 826
ATOM    826  N1  C   B  72     -22.713 -18.699 -17.223  0.00  0.00    +0.000 N 
ATOM    827  C2  C   B  72     -22.086 -17.602 -16.619  0.00  0.00    +0.000 A 
ATOM    828  O2  C   B  72     -22.666 -16.510 -16.604  0.00  0.00    +0.000 OA
ATOM    829  N3  C   B  72     -20.861 -17.760 -16.062  0.00  0.00    +0.000 NA
ATOM    830  C4  C   B  72     -20.265 -18.952 -16.091  0.00  0.00    +0.000 A 
ATOM    831  N4  C   B  72     -19.060 -19.058 -15.526  0.00  0.00    +0.000 N 
ATOM    832  C5  C   B  72     -20.881 -20.084 -16.700  0.00  0.00    +0.000 A 
ATOM    833  C6  C   B  72     -22.091 -19.914 -17.246  0.00  0.00    +0.000 A 
ATOM    834  H   C   B  72     -18.590 -19.923 -15.528  0.00  0.00    +0.000 HD
ATOM    835  H   C   B  72     -18.642 -18.271 -15.107  0.00  0.00    +0.000 HD
ENDBRANCH 825 826
BRANCH 824 836
ATOM    836  O2' C   B  72     -25.018 -16.966 -19.381  0.00  0.00    +0.000 OA
ATOM    837  H   C   B  72     -25.877 -17.336 -19.125  0.00  0.00    +0.000 HD
ENDBRANCH 824 836
BRANCH 823 838
ATOM    838  O3' C   B  72     -24.947 -18.900 -21.313  0.00  0.00    +0.000 OA
BRANCH 838 839
ATOM    839  P   U   B  73     -24.146 -19.024 -22.679  0.00  0.00    +0.000 P 
ATOM    840  OP1 U   B  73     -25.131 -19.151 -23.776  0.00  0.00    +0.000 OA
BRANCH 839 841
ATOM    841  OP2 U   B  73     -23.089 -20.052 -22.513  0.00  0.00    +0.000 OA
ATOM    842  H   U   B  73     -22.590 -20.139 -23.340  0.00  0.00    +0.000 HD
ENDBRANCH 839 841
BRANCH 839 843
ATOM    843  O5' U   B  73     -23.425 -17.612 -22.805  0.00  0.00    +0.000 OA
BRANCH 843 844
ATOM    844  C5' U   B  73     -24.172 -16.417 -22.741  0.00  0.00    +0.000 C 
BRANCH 844 845
ATOM    845  C4' U   B  73     -23.266 -15.233 -22.515  0.00  0.00    +0.000 C 
ATOM    846  O4' U   B  73     -22.563 -15.425 -21.257  0.00  0.00    +0.000 OA
ATOM    847  C3' U   B  73     -22.211 -15.035 -23.595  0.00  0.00    +0.000 C 
ATOM    848  C2' U   B  73     -20.868 -15.139 -22.865  0.00  0.00    +0.000 C 
ATOM    849  C1' U   B  73     -21.235 -15.000 -21.393  0.00  0.00    +0.000 C 
BRANCH 849 850
ATOM    850  N1  U   B  73     -20.382 -15.827 -20.516  0.00  0.00    +0.000 N 
ATOM    851  C2  U   B  73     -19.682 -15.194 -19.502  0.00  0.00    +0.000 A 
ATOM    852  O2  U   B  73     -19.756 -13.996 -19.294  0.00  0.00    +0.000 OA
ATOM    853  N3  U   B  73     -18.896 -16.015 -18.732  0.00  0.00    +0.000 N 
ATOM    854  C4  U   B  73     -18.741 -17.377 -18.873  0.00  0.00    +0.000 A 
ATOM    855  O4  U   B  73     -17.996 -17.979 -18.104  0.00  0.00    +0.000 OA
ATOM    856  C5  U   B  73     -19.493 -17.960 -19.948  0.00  0.00    +0.000 A 
ATOM    857  C6  U   B  73     -20.265 -17.184 -20.717  0.00  0.00    +0.000 A 
ATOM    858  H   U   B  73     -18.391 -15.586 -18.004  0.00  0.00    +0.000 HD
ENDBRANCH 849 850
BRANCH 848 859
ATOM    859  O2' U   B  73     -19.928 -14.142 -23.222  0.00  0.00    +0.000 OA
ATOM    860  H   U   B  73     -20.294 -13.266 -23.022  0.00  0.00    +0.000 HD
ENDBRANCH 848 859
BRANCH 847 861
ATOM    861  O3' U   B  73     -22.359 -13.761 -24.214  0.00  0.00    +0.000 OA
BRANCH 861 862
ATOM    862  P   C   B  74     -22.808 -13.661 -25.715  0.00  0.00    +0.000 P 
ATOM    863  OP2 C   B  74     -21.853 -14.456 -26.523  0.00  0.00    +0.000 OA
BRANCH 862 864
ATOM    864  OP1 C   B  74     -24.258 -13.946 -25.823  0.00  0.00    +0.000 OA
ATOM    865  H   C   B  74     -24.532 -13.883 -26.752  0.00  0.00    +0.000 HD
ENDBRANCH 862 864
BRANCH 862 866
ATOM    866  O5' C   B  74     -22.568 -12.133 -26.044  0.00  0.00    +0.000 OA
BRANCH 866 867
ATOM    867  C5' C   B  74     -21.320 -11.520 -25.805  0.00  0.00    +0.000 C 
BRANCH 867 868
ATOM    868  C4' C   B  74     -21.493 -10.098 -25.326  0.00  0.00    +0.000 C 
ATOM    869  O4' C   B  74     -22.179  -9.339 -26.358  0.00  0.00    +0.000 OA
ATOM    870  C3' C   B  74     -22.315  -9.947 -24.051  0.00  0.00    +0.000 C 
ATOM    871  C2' C   B  74     -23.680  -9.511 -24.566  0.00  0.00    +0.000 C 
ATOM    872  C1' C   B  74     -23.321  -8.719 -25.813  0.00  0.00    +0.000 C 
BRANCH 872 873
ATOM    873  N1  C   B  74     -24.374  -8.716 -26.844  0.00  0.00    +0.000 N 
ATOM    874  C2  C   B  74     -24.776  -7.500 -27.404  0.00  0.00    +0.000 A 
ATOM    875  O2  C   B  74     -24.232  -6.454 -27.018  0.00  0.00    +0.000 OA
ATOM    876  N3  C   B  74     -25.744  -7.494 -28.348  0.00  0.00    +0.000 NA
ATOM    877  C4  C   B  74     -26.298  -8.641 -28.736  0.00  0.00    +0.000 A 
ATOM    878  N4  C   B  74     -27.239  -8.586 -29.665  0.00  0.00    +0.000 N 
ATOM    879  C5  C   B  74     -25.912  -9.896 -28.178  0.00  0.00    +0.000 A 
ATOM    880  C6  C   B  74     -24.955  -9.887 -27.244  0.00  0.00    +0.000 A 
ATOM    881  H   C   B  74     -27.503  -7.718 -30.048  0.00  0.00    +0.000 HD
ATOM    882  H   C   B  74     -27.675  -9.413 -29.973  0.00  0.00    +0.000 HD
ENDBRANCH 872 873
BRANCH 871 883
ATOM    883  O2' C   B  74     -24.424  -8.728 -23.669  0.00  0.00    +0.000 OA
ATOM    884  H   C   B  74     -23.925  -7.926 -23.449  0.00  0.00    +0.000 HD
ENDBRANCH 871 883
BRANCH 870 885
ATOM    885  O3' C   B  74     -21.756  -8.933 -23.228  0.00  0.00    +0.000 OA
BRANCH 885 886
ATOM    886  P   C   B  75     -20.674  -9.328 -22.173  0.00  0.00    +0.000 P 
ATOM    887  OP1 C   B  75     -19.486  -9.843 -22.884  0.00  0.00    +0.000 OA
BRANCH 886 888
ATOM    888  OP2 C   B  75     -21.321 -10.161 -21.144  0.00  0.00    +0.000 OA
ATOM    889  H   C   B  75     -21.561 -11.019 -21.527  0.00  0.00    +0.000 HD
ENDBRANCH 886 888
BRANCH 886 890
ATOM    890  O5' C   B  75     -20.302  -7.941 -21.501  0.00  0.00    +0.000 OA
BRANCH 890 891
ATOM    891  C5' C   B  75     -19.602  -6.948 -22.231  0.00  0.00    +0.000 C 
BRANCH 891 892
ATOM    892  C4' C   B  75     -20.201  -5.582 -22.000  0.00  0.00    +0.000 C 
ATOM    893  O4' C   B  75     -21.181  -5.326 -23.034  0.00  0.00    +0.000 OA
ATOM    894  C3' C   B  75     -20.948  -5.406 -20.690  0.00  0.00    +0.000 C 
ATOM    895  C2' C   B  75     -22.174  -4.561 -21.029  0.00  0.00    +0.000 C 
ATOM    896  C1' C   B  75     -22.107  -4.407 -22.547  0.00  0.00    +0.000 C 
BRANCH 896 897
ATOM    897  N1  C   B  75     -23.382  -4.648 -23.238  0.00  0.00    +0.000 N 
ATOM    898  C2  C   B  75     -23.588  -3.990 -24.450  0.00  0.00    +0.000 A 
ATOM    899  O2  C   B  75     -22.703  -3.242 -24.891  0.00  0.00    +0.000 OA
ATOM    900  N3  C   B  75     -24.739  -4.189 -25.129  0.00  0.00    +0.000 NA
ATOM    901  C4  C   B  75     -25.671  -5.003 -24.626  0.00  0.00    +0.000 A 
ATOM    902  N4  C   B  75     -26.788  -5.166 -25.336  0.00  0.00    +0.000 N 
ATOM    903  C5  C   B  75     -25.493  -5.677 -23.381  0.00  0.00    +0.000 A 
ATOM    904  C6  C   B  75     -24.349  -5.472 -22.724  0.00  0.00    +0.000 A 
ATOM    905  H   C   B  75     -26.899  -4.696 -26.194  0.00  0.00    +0.000 HD
ATOM    906  H   C   B  75     -27.501  -5.757 -25.003  0.00  0.00    +0.000 HD
ENDBRANCH 896 897
BRANCH 895 907
ATOM    907  O2' C   B  75     -22.186  -3.284 -20.441  0.00  0.00    +0.000 OA
ATOM    908  H   C   B  75     -21.408  -2.785 -20.735  0.00  0.00    +0.000 HD
ENDBRANCH 895 907
BRANCH 894 909
ATOM    909  O3' C   B  75     -20.095  -4.766 -19.749  0.00  0.00    +0.000 OA
BRANCH 909 910
ATOM    910  P   A   B  76     -20.534  -4.681 -18.269  0.00  0.00    +0.000 P 
ATOM    911  OP2 A   B  76     -21.942  -5.091 -18.133  0.00  0.00    +0.000 OA
BRANCH 910 912
ATOM    912  OP1 A   B  76     -19.494  -5.339 -17.448  0.00  0.00    +0.000 OA
ATOM    913  H   A   B  76     -19.530  -6.298 -17.588  0.00  0.00    +0.000 HD
ENDBRANCH 910 912
BRANCH 910 914
ATOM    914  O5' A   B  76     -20.435  -3.121 -18.006  0.00  0.00    +0.000 OA
BRANCH 914 915
ATOM    915  C5' A   B  76     -19.245  -2.408 -18.306  0.00  0.00    +0.000 C 
BRANCH 915 916
ATOM    916  C4' A   B  76     -19.501  -0.929 -18.223  0.00  0.00    +0.000 C 
ATOM    917  O4' A   B  76     -20.016  -0.470 -19.490  0.00  0.00    +0.000 OA
ATOM    918  C3' A   B  76     -20.551  -0.533 -17.203  0.00  0.00    +0.000 C 
ATOM    919  C2' A   B  76     -21.174   0.731 -17.784  0.00  0.00    +0.000 C 
ATOM    920  C1' A   B  76     -20.892   0.597 -19.288  0.00  0.00    +0.000 C 
BRANCH 920 921
ATOM    921  N9  A   B  76     -22.086   0.354 -20.095  0.00  0.00    +0.000 N 
ATOM    922  C8  A   B  76     -23.126  -0.499 -19.865  0.00  0.00    +0.000 A 
ATOM    923  N7  A   B  76     -24.036  -0.478 -20.800  0.00  0.00    +0.000 NA
ATOM    924  C5  A   B  76     -23.559   0.449 -21.704  0.00  0.00    +0.000 A 
ATOM    925  C6  A   B  76     -24.062   0.928 -22.924  0.00  0.00    +0.000 A 
ATOM    926  N1  A   B  76     -23.337   1.856 -23.572  0.00  0.00    +0.000 NA
ATOM    927  C2  A   B  76     -22.193   2.272 -23.036  0.00  0.00    +0.000 A 
ATOM    928  N3  A   B  76     -21.618   1.900 -21.898  0.00  0.00    +0.000 NA
ATOM    929  C4  A   B  76     -22.362   0.973 -21.277  0.00  0.00    +0.000 A 
BRANCH 925 930
ATOM    930  N6  A   B  76     -25.210   0.514 -23.461  0.00  0.00    +0.000 N 
ATOM    931  H   A   B  76     -25.514   0.886 -24.321  0.00  0.00    +0.000 HD
ATOM    932  H   A   B  76     -25.754  -0.163 -22.998  0.00  0.00    +0.000 HD
ENDBRANCH 925 930
ENDBRANCH 920 921
BRANCH 919 933
ATOM    933  O2' A   B  76     -20.576   1.915 -17.306  0.00  0.00    +0.000 OA
ATOM    934  H   A   B  76     -19.629   1.906 -17.515  0.00  0.00    +0.000 HD
ENDBRANCH 919 933
BRANCH 918 935
ATOM    935  O3' A   B  76     -19.952  -0.312 -15.931  0.00  0.00    +0.000 OA
ATOM    936  H   A   B  76     -19.267   0.370 -16.010  0.00  0.00    +0.000 HD
ENDBRANCH 918 935
ENDBRANCH 915 916
ENDBRANCH 914 915
ENDBRANCH 910 914
ENDBRANCH 909 910
ENDBRANCH 894 909
ENDBRANCH 891 892
ENDBRANCH 890 891
ENDBRANCH 886 890
ENDBRANCH 885 886
ENDBRANCH 870 885
ENDBRANCH 867 868
ENDBRANCH 866 867
ENDBRANCH 862 866
ENDBRANCH 861 862
ENDBRANCH 847 861
ENDBRANCH 844 845
ENDBRANCH 843 844
ENDBRANCH 839 843
ENDBRANCH 838 839
ENDBRANCH 823 838
ENDBRANCH 820 821
ENDBRANCH 819 820
ENDBRANCH 815 819
ENDBRANCH 814 815
ENDBRANCH 800 814
ENDBRANCH 797 798
ENDBRANCH 796 797
ENDBRANCH 792 796
ENDBRANCH 791 792
ENDBRANCH 774 791
ENDBRANCH 771 772
ENDBRANCH 770 771
ENDBRANCH 766 770
ENDBRANCH 765 766
ENDBRANCH 748 765
ENDBRANCH 745 746
ENDBRANCH 744 745
ENDBRANCH 740 744
ENDBRANCH 739 740
ENDBRANCH 722 739
ENDBRANCH 719 720
ENDBRANCH 718 719
ENDBRANCH 714 718
ENDBRANCH 713 714
ENDBRANCH 696 713
ENDBRANCH 693 694
ENDBRANCH 692 693
ENDBRANCH 688 692
ENDBRANCH 687 688
ENDBRANCH 670 687
ENDBRANCH 667 668
ENDBRANCH 666 667
ENDBRANCH 662 666
ENDBRANCH 661 662
ENDBRANCH 646 661
ENDBRANCH 643 644
ENDBRANCH 642 643
ENDBRANCH 638 642
ENDBRANCH 637 638
ENDBRANCH 620 637
ENDBRANCH 617 618
ENDBRANCH 616 617
ENDBRANCH 612 616
ENDBRANCH 611 612
ENDBRANCH 597 611
ENDBRANCH 594 595
ENDBRANCH 593 594
ENDBRANCH 589 593
ENDBRANCH 588 589
ENDBRANCH 573 588
ENDBRANCH 570 571
ENDBRANCH 569 570
ENDBRANCH 565 569
ENDBRANCH 564 565
ENDBRANCH 547 564
ENDBRANCH 544 545
ENDBRANCH 543 544
ENDBRANCH 539 543
ENDBRANCH 538 539
ENDBRANCH 519 538
ENDBRANCH 516 517
ENDBRANCH 515 516
ENDBRANCH 511 515
ENDBRANCH 510 511
ENDBRANCH 493 510
ENDBRANCH 490 491
ENDBRANCH 489 490
ENDBRANCH 485 489
ENDBRANCH 484 485
ENDBRANCH 469 484
ENDBRANCH 466 467
ENDBRANCH 465 466
ENDBRANCH 461 465
ENDBRANCH 460 461
ENDBRANCH 443 460
ENDBRANCH 440 441
ENDBRANCH 439 440
ENDBRANCH 435 439
ENDBRANCH 434 435
ENDBRANCH 417 434
ENDBRANCH 414 415
ENDBRANCH 413 414
ENDBRANCH 409 413
ENDBRANCH 408 409
ENDBRANCH 391 408
ENDBRANCH 388 389
ENDBRANCH 387 388
ENDBRANCH 383 387
ENDBRANCH 382 383
ENDBRANCH 365 382
ENDBRANCH 362 363
ENDBRANCH 361 362
ENDBRANCH 357 361
ENDBRANCH 356 357
ENDBRANCH 339 356
ENDBRANCH 336 337
ENDBRANCH 335 336
ENDBRANCH 331 335
ENDBRANCH 330 331
ENDBRANCH 316 330
ENDBRANCH 313 314
ENDBRANCH 312 313
ENDBRANCH 308 312
ENDBRANCH 307 308
ENDBRANCH 293 307
ENDBRANCH 290 291
ENDBRANCH 289 290
ENDBRANCH 285 289
ENDBRANCH 284 285
ENDBRANCH 270 284
ENDBRANCH 267 268
ENDBRANCH 266 267
ENDBRANCH 262 266
ENDBRANCH 261 262
ENDBRANCH 247 261
ENDBRANCH 244 245
ENDBRANCH 243 244
ENDBRANCH 239 243
ENDBRANCH 238 239
ENDBRANCH 221 238
ENDBRANCH 218 219
ENDBRANCH 217 218
ENDBRANCH 213 217
ENDBRANCH 212 213
ENDBRANCH 198 212
ENDBRANCH 195 196
ENDBRANCH 194 195
ENDBRANCH 190 194
ENDBRANCH 189 190
ENDBRANCH 175 189
ENDBRANCH 172 173
ENDBRANCH 171 172
ENDBRANCH 167 171
ENDBRANCH 166 167
ENDBRANCH 152 166
ENDBRANCH 149 150
ENDBRANCH 148 149
ENDBRANCH 144 148
ENDBRANCH 143 144
ENDBRANCH 128 143
ENDBRANCH 125 126
ENDBRANCH 124 125
ENDBRANCH 120 124
ENDBRANCH 119 120
ENDBRANCH 102 119
ENDBRANCH  99 100
ENDBRANCH  98  99
ENDBRANCH  94  98
ENDBRANCH  93  94
ENDBRANCH  79  93
ENDBRANCH  76  77
ENDBRANCH  75  76
ENDBRANCH  71  75
ENDBRANCH  70  71
ENDBRANCH  56  70
ENDBRANCH  53  54
ENDBRANCH  52  53
ENDBRANCH  48  52
ENDBRANCH  47  48
ENDBRANCH  32  47
ENDBRANCH  29  30
ENDBRANCH  28  29
ENDBRANCH  24  28
ENDBRANCH  23  24
ENDBRANCH   9  23
ENDBRANCH   6   7
ENDBRANCH   5   6
ENDBRANCH   1   5
BRANCH   1 937
ATOM    937  O3' U   B  38      32.797  -8.686  22.712  0.00  0.00    +0.000 OA
BRANCH 937 940
ATOM    938  C4' U   B  38      30.880  -9.738  23.784  0.00  0.00    +0.000 C 
ATOM    939  O4' U   B  38      29.448  -9.485  23.758  0.00  0.00    +0.000 OA
ATOM    940  C3' U   B  38      31.485  -8.473  23.217  0.00  0.00    +0.000 C 
ATOM    941  C2' U   B  38      30.480  -8.081  22.143  0.00  0.00    +0.000 C 
ATOM    942  C1' U   B  38      29.156  -8.485  22.804  0.00  0.00    +0.000 C 
BRANCH 942 943
ATOM    943  N1  U   B  38      28.490  -7.355  23.482  0.00  0.00    +0.000 N 
ATOM    944  C2  U   B  38      27.747  -6.492  22.698  0.00  0.00    +0.000 A 
ATOM    945  O2  U   B  38      27.628  -6.624  21.496  0.00  0.00    +0.000 OA
ATOM    946  N3  U   B  38      27.145  -5.459  23.374  0.00  0.00    +0.000 N 
ATOM    947  C4  U   B  38      27.205  -5.206  24.727  0.00  0.00    +0.000 A 
ATOM    948  O4  U   B  38      26.607  -4.235  25.185  0.00  0.00    +0.000 OA
ATOM    949  C5  U   B  38      27.990  -6.144  25.470  0.00  0.00    +0.000 A 
ATOM    950  C6  U   B  38      28.590  -7.163  24.835  0.00  0.00    +0.000 A 
ATOM    951  H   U   B  38      26.613  -4.831  22.833  0.00  0.00    +0.000 HD
ENDBRANCH 942 943
BRANCH 941 952
ATOM    952  O2' U   B  38      30.654  -8.831  20.964  0.00  0.00    +0.000 OA
ATOM    953  H   U   B  38      30.593  -9.777  21.170  0.00  0.00    +0.000 HD
ENDBRANCH 941 952
BRANCH 938 954
ATOM    954  C5' U   B  38      31.313 -10.100  25.184  0.00  0.00    +0.000 C 
BRANCH 954 955
ATOM    955  O5' U   B  38      31.086  -9.024  26.080  0.00  0.00    +0.000 OA
BRANCH 955 956
ATOM    956  P   U   B  38      31.256  -9.214  27.651  0.00  0.00    +0.000 P 
ATOM    957  OP1 U   B  38      32.584  -9.816  27.907  0.00  0.00    +0.000 OA
BRANCH 956 958
ATOM    958  OP2 U   B  38      30.882  -7.937  28.311  0.00  0.00    +0.000 OA
ATOM    959  H   U   B  38      31.550  -7.262  28.112  0.00  0.00    +0.000 HD
ENDBRANCH 956 958
BRANCH 956 960
ATOM    960  O3' A   B  37      30.143 -10.298  27.997  0.00  0.00    +0.000 OA
BRANCH 960 963
ATOM    961  C4' A   B  37      27.943 -10.594  29.016  0.00  0.00    +0.000 C 
ATOM    962  O4' A   B  37      26.587 -10.597  28.494  0.00  0.00    +0.000 OA
ATOM    963  C3' A   B  37      28.764  -9.974  27.904  0.00  0.00    +0.000 C 
ATOM    964  C2' A   B  37      28.093 -10.533  26.663  0.00  0.00    +0.000 C 
ATOM    965  C1' A   B  37      26.623 -10.509  27.084  0.00  0.00    +0.000 C 
BRANCH 965 966
ATOM    966  N9  A   B  37      25.950  -9.268  26.674  0.00  0.00    +0.000 N 
ATOM    967  C8  A   B  37      25.603  -8.194  27.450  0.00  0.00    +0.000 A 
ATOM    968  N7  A   B  37      25.008  -7.234  26.785  0.00  0.00    +0.000 NA
ATOM    969  C5  A   B  37      24.960  -7.709  25.482  0.00  0.00    +0.000 A 
ATOM    970  C6  A   B  37      24.455  -7.166  24.291  0.00  0.00    +0.000 A 
ATOM    971  N1  A   B  37      24.570  -7.899  23.170  0.00  0.00    +0.000 NA
ATOM    972  C2  A   B  37      25.154  -9.100  23.242  0.00  0.00    +0.000 A 
ATOM    973  N3  A   B  37      25.667  -9.718  24.301  0.00  0.00    +0.000 NA
ATOM    974  C4  A   B  37      25.537  -8.961  25.402  0.00  0.00    +0.000 A 
BRANCH 970 975
ATOM    975  N6  A   B  37      23.871  -5.963  24.221  0.00  0.00    +0.000 N 
ATOM    976  H   A   B  37      23.533  -5.629  23.359  0.00  0.00    +0.000 HD
ATOM    977  H   A   B  37      23.779  -5.412  25.032  0.00  0.00    +0.000 HD
ENDBRANCH 970 975
ENDBRANCH 965 966
BRANCH 964 978
ATOM    978  O2' A   B  37      28.480 -11.865  26.407  0.00  0.00    +0.000 OA
ATOM    979  H   A   B  37      28.287 -12.413  27.184  0.00  0.00    +0.000 HD
ENDBRANCH 964 978
BRANCH 961 980
ATOM    980  C5' A   B  37      27.979  -9.866  30.337  0.00  0.00    +0.000 C 
BRANCH 980 981
ATOM    981  O5' A   B  37      27.670  -8.488  30.163  0.00  0.00    +0.000 OA
BRANCH 981 982
ATOM    982  P   A   B  37      27.541  -7.520  31.418  0.00  0.00    +0.000 P 
ATOM    983  OP2 A   B  37      27.227  -6.155  30.915  0.00  0.00    +0.000 OA
BRANCH 982 984
ATOM    984  OP1 A   B  37      28.723  -7.729  32.285  0.00  0.00    +0.000 OA
ATOM    985  H   A   B  37      29.514  -7.383  31.843  0.00  0.00    +0.000 HD
ENDBRANCH 982 984
BRANCH 982 986
ATOM    986  O3' U   B  36      26.261  -8.094  32.162  0.00  0.00    +0.000 OA
BRANCH 986 989
ATOM    987  C4' U   B  36      23.953  -7.718  32.852  0.00  0.00    +0.000 C 
ATOM    988  O4' U   B  36      22.671  -7.814  32.172  0.00  0.00    +0.000 OA
ATOM    989  C3' U   B  36      24.959  -7.742  31.725  0.00  0.00    +0.000 C 
ATOM    990  C2' U   B  36      24.339  -8.754  30.771  0.00  0.00    +0.000 C 
ATOM    991  C1' U   B  36      22.851  -8.404  30.897  0.00  0.00    +0.000 C 
BRANCH 991 992
ATOM    992  N1  U   B  36      22.413  -7.450  29.852  0.00  0.00    +0.000 N 
ATOM    993  C2  U   B  36      22.173  -7.954  28.586  0.00  0.00    +0.000 A 
ATOM    994  O2  U   B  36      22.302  -9.133  28.305  0.00  0.00    +0.000 OA
ATOM    995  N3  U   B  36      21.776  -7.026  27.654  0.00  0.00    +0.000 N 
ATOM    996  C4  U   B  36      21.595  -5.674  27.849  0.00  0.00    +0.000 A 
ATOM    997  O4  U   B  36      21.234  -4.975  26.907  0.00  0.00    +0.000 OA
ATOM    998  C5  U   B  36      21.862  -5.230  29.180  0.00  0.00    +0.000 A 
ATOM    999  C6  U   B  36      22.253  -6.112  30.114  0.00  0.00    +0.000 A 
ATOM   1000  H   U   B  36      21.601  -7.364  26.746  0.00  0.00    +0.000 HD
ENDBRANCH 991 992
BRANCH 9901001
ATOM   1001  O2' U   B  36      24.541 -10.079  31.200  0.00  0.00    +0.000 OA
ATOM   1002  H   U   B  36      24.188 -10.186  32.097  0.00  0.00    +0.000 HD
ENDBRANCH 9901001
BRANCH 9871003
ATOM   1003  C5' U   B  36      23.985  -6.497  33.736  0.00  0.00    +0.000 C 
BRANCH10031004
ATOM   1004  O5' U   B  36      23.818  -5.306  32.974  0.00  0.00    +0.000 OA
BRANCH10041005
ATOM   1005  P   U   B  36      23.723  -3.886  33.692  0.00  0.00    +0.000 P 
ATOM   1006  OP2 U   B  36      23.524  -2.857  32.637  0.00  0.00    +0.000 OA
BRANCH10051007
ATOM   1007  OP1 U   B  36      24.855  -3.764  34.635  0.00  0.00    +0.000 OA
ATOM   1008  H   U   B  36      25.685  -3.702  34.137  0.00  0.00    +0.000 HD
ENDBRANCH10051007
BRANCH10051009
ATOM   1009  O3' A   B  35      22.389  -3.985  34.543  0.00  0.00    +0.000 OA
BRANCH10091012
ATOM   1010  C4' A   B  35      19.998  -3.456  34.676  0.00  0.00    +0.000 C 
ATOM   1011  O4' A   B  35      18.812  -4.050  34.080  0.00  0.00    +0.000 OA
ATOM   1012  C3' A   B  35      21.133  -4.089  33.898  0.00  0.00    +0.000 C 
ATOM   1013  C2' A   B  35      20.640  -5.521  33.768  0.00  0.00    +0.000 C 
ATOM   1014  C1' A   B  35      19.154  -5.293  33.495  0.00  0.00    +0.000 C 
BRANCH10141015
ATOM   1015  N9  A   B  35      18.887  -5.248  32.051  0.00  0.00    +0.000 N 
ATOM   1016  C8  A   B  35      18.602  -4.167  31.257  0.00  0.00    +0.000 A 
ATOM   1017  N7  A   B  35      18.435  -4.483  29.993  0.00  0.00    +0.000 NA
ATOM   1018  C5  A   B  35      18.626  -5.856  29.957  0.00  0.00    +0.000 A 
ATOM   1019  C6  A   B  35      18.589  -6.795  28.917  0.00  0.00    +0.000 A 
ATOM   1020  N1  A   B  35      18.829  -8.085  29.225  0.00  0.00    +0.000 NA
ATOM   1021  C2  A   B  35      19.087  -8.407  30.492  0.00  0.00    +0.000 A 
ATOM   1022  N3  A   B  35      19.147  -7.616  31.560  0.00  0.00    +0.000 NA
ATOM   1023  C4  A   B  35      18.905  -6.339  31.217  0.00  0.00    +0.000 A 
BRANCH10191024
ATOM   1024  N6  A   B  35      18.336  -6.476  27.644  0.00  0.00    +0.000 N 
ATOM   1025  H   A   B  35      18.323  -7.178  26.954  0.00  0.00    +0.000 HD
ATOM   1026  H   A   B  35      18.163  -5.539  27.396  0.00  0.00    +0.000 HD
ENDBRANCH10191024
ENDBRANCH10141015
BRANCH10131027
ATOM   1027  O2' A   B  35      20.784  -6.243  34.973  0.00  0.00    +0.000 OA
ATOM   1028  H   A   B  35      20.320  -5.777  35.686  0.00  0.00    +0.000 HD
ENDBRANCH10131027
BRANCH10101029
ATOM   1029  C5' A   B  35      19.906  -1.952  34.634  0.00  0.00    +0.000 C 
BRANCH10291030
ATOM   1030  O5' A   B  35      19.591  -1.485  33.325  0.00  0.00    +0.000 OA
BRANCH10301031
ATOM   1031  P   A   B  35      19.008  -0.016  33.112  0.00  0.00    +0.000 P 
ATOM   1032  OP2 A   B  35      18.884   0.215  31.654  0.00  0.00    +0.000 OA
BRANCH10311033
ATOM   1033  OP1 A   B  35      19.799   0.922  33.942  0.00  0.00    +0.000 OA
ATOM   1034  H   A   B  35      20.696   0.995  33.581  0.00  0.00    +0.000 HD
ENDBRANCH10311033
BRANCH10311035
ATOM   1035  O3' A   B  34      17.551  -0.104  33.739  0.00  0.00    +0.000 OA
BRANCH10351038
ATOM   1036  C4' A   B  34      15.146  -0.186  33.273  0.00  0.00    +0.000 C 
ATOM   1037  O4' A   B  34      14.236  -1.253  32.890  0.00  0.00    +0.000 OA
ATOM   1038  C3' A   B  34      16.517  -0.790  33.051  0.00  0.00    +0.000 C 
ATOM   1039  C2' A   B  34      16.304  -2.217  33.531  0.00  0.00    +0.000 C 
ATOM   1040  C1' A   B  34      14.896  -2.498  33.002  0.00  0.00    +0.000 C 
BRANCH10401041
ATOM   1041  N9  A   B  34      14.931  -3.144  31.685  0.00  0.00    +0.000 N 
ATOM   1042  C8  A   B  34      14.778  -2.575  30.445  0.00  0.00    +0.000 A 
ATOM   1043  N7  A   B  34      14.875  -3.434  29.459  0.00  0.00    +0.000 NA
ATOM   1044  C5  A   B  34      15.109  -4.647  30.090  0.00  0.00    +0.000 A 
ATOM   1045  C6  A   B  34      15.306  -5.949  29.605  0.00  0.00    +0.000 A 
ATOM   1046  N1  A   B  34      15.516  -6.931  30.503  0.00  0.00    +0.000 NA
ATOM   1047  C2  A   B  34      15.526  -6.623  31.802  0.00  0.00    +0.000 A 
ATOM   1048  N3  A   B  34      15.352  -5.438  32.382  0.00  0.00    +0.000 NA
ATOM   1049  C4  A   B  34      15.147  -4.483  31.459  0.00  0.00    +0.000 A 
BRANCH10451050
ATOM   1050  N6  A   B  34      15.298  -6.259  28.303  0.00  0.00    +0.000 N 
ATOM   1051  H   A   B  34      15.146  -5.556  27.631  0.00  0.00    +0.000 HD
ATOM   1052  H   A   B  34      15.444  -7.190  28.018  0.00  0.00    +0.000 HD
ENDBRANCH10451050
ENDBRANCH10401041
BRANCH10391053
ATOM   1053  O2' A   B  34      16.293  -2.302  34.942  0.00  0.00    +0.000 OA
ATOM   1054  H   A   B  34      15.614  -1.707  35.296  0.00  0.00    +0.000 HD
ENDBRANCH10391053
BRANCH10361055
ATOM   1055  C5' A   B  34      14.839   1.067  32.492  0.00  0.00    +0.000 C 
BRANCH10551056
ATOM   1056  O5' A   B  34      15.112   0.888  31.109  0.00  0.00    +0.000 OA
BRANCH10561057
ATOM   1057  P   A   B  34      14.647   1.977  30.044  0.00  0.00    +0.000 P 
ATOM   1058  OP2 A   B  34      15.024   1.487  28.696  0.00  0.00    +0.000 OA
BRANCH10571059
ATOM   1059  OP1 A   B  34      15.106   3.307  30.503  0.00  0.00    +0.000 OA
ATOM   1060  H   A   B  34      14.830   3.983  29.864  0.00  0.00    +0.000 HD
ENDBRANCH10571059
BRANCH10571061
ATOM   1061  O3' U   B  33      13.065   1.939  30.176  0.00  0.00    +0.000 OA
BRANCH10611064
ATOM   1062  C4' U   B  33      10.986   1.289  29.069  0.00  0.00    +0.000 C 
ATOM   1063  O4' U   B  33      10.226   0.049  28.997  0.00  0.00    +0.000 OA
ATOM   1064  C3' U   B  33      12.328   0.861  29.615  0.00  0.00    +0.000 C 
ATOM   1065  C2' U   B  33      11.932  -0.206  30.626  0.00  0.00    +0.000 C 
ATOM   1066  C1' U   B  33      10.778  -0.899  29.889  0.00  0.00    +0.000 C 
BRANCH10661067
ATOM   1067  N1  U   B  33      11.235  -2.075  29.115  0.00  0.00    +0.000 N 
ATOM   1068  C2  U   B  33      11.391  -3.266  29.803  0.00  0.00    +0.000 A 
ATOM   1069  O2  U   B  33      11.163  -3.378  30.998  0.00  0.00    +0.000 OA
ATOM   1070  N3  U   B  33      11.820  -4.329  29.044  0.00  0.00    +0.000 N 
ATOM   1071  C4  U   B  33      12.105  -4.319  27.696  0.00  0.00    +0.000 A 
ATOM   1072  O4  U   B  33      12.483  -5.354  27.151  0.00  0.00    +0.000 OA
ATOM   1073  C5  U   B  33      11.925  -3.054  27.057  0.00  0.00    +0.000 A 
ATOM   1074  C6  U   B  33      11.506  -2.002  27.773  0.00  0.00    +0.000 A 
ATOM   1075  H   U   B  33      11.936  -5.187  29.513  0.00  0.00    +0.000 HD
ENDBRANCH10661067
BRANCH10651076
ATOM   1076  O2' U   B  33      11.437   0.360  31.824  0.00  0.00    +0.000 OA
ATOM   1077  H   U   B  33      10.690   0.945  31.621  0.00  0.00    +0.000 HD
ENDBRANCH10651076
BRANCH10621078
ATOM   1078  C5' U   B  33      11.014   1.959  27.719  0.00  0.00    +0.000 C 
BRANCH10781079
ATOM   1079  O5' U   B  33      11.731   1.179  26.771  0.00  0.00    +0.000 OA
BRANCH10791080
ATOM   1080  P   U   B  33      11.669   1.514  25.215  0.00  0.00    +0.000 P 
ATOM   1081  OP2 U   B  33      12.404   0.451  24.491  0.00  0.00    +0.000 OA
BRANCH10801082
ATOM   1082  OP1 U   B  33      12.045   2.931  25.029  0.00  0.00    +0.000 OA
ATOM   1083  H   U   B  33      12.013   3.153  24.085  0.00  0.00    +0.000 HD
ENDBRANCH10801082
BRANCH10801084
ATOM   1084  O3' A   B  32      10.130   1.384  24.889  0.00  0.00    +0.000 OA
BRANCH10841087
ATOM   1085  C4' A   B  32       8.445   0.063  23.715  0.00  0.00    +0.000 C 
ATOM   1086  O4' A   B  32       7.630  -1.084  24.084  0.00  0.00    +0.000 OA
ATOM   1087  C3' A   B  32       9.528   0.099  24.772  0.00  0.00    +0.000 C 
ATOM   1088  C2' A   B  32       8.769  -0.336  26.017  0.00  0.00    +0.000 C 
ATOM   1089  C1' A   B  32       7.836  -1.400  25.446  0.00  0.00    +0.000 C 
BRANCH10891090
ATOM   1090  N9  A   B  32       8.406  -2.752  25.532  0.00  0.00    +0.000 N 
ATOM   1091  C8  A   B  32       9.024  -3.471  24.540  0.00  0.00    +0.000 A 
ATOM   1092  N7  A   B  32       9.426  -4.658  24.927  0.00  0.00    +0.000 NA
ATOM   1093  C5  A   B  32       9.048  -4.727  26.259  0.00  0.00    +0.000 A 
ATOM   1094  C6  A   B  32       9.188  -5.726  27.233  0.00  0.00    +0.000 A 
ATOM   1095  N6  A   B  32       9.774  -6.903  26.999  0.00  0.00    +0.000 N 
ATOM   1096  N1  A   B  32       8.704  -5.472  28.465  0.00  0.00    +0.000 NA
ATOM   1097  C2  A   B  32       8.119  -4.294  28.695  0.00  0.00    +0.000 A 
ATOM   1098  N3  A   B  32       7.925  -3.276  27.861  0.00  0.00    +0.000 NA
ATOM   1099  C4  A   B  32       8.419  -3.558  26.643  0.00  0.00    +0.000 A 
ATOM   1100  H   A   B  32      10.133  -7.105  26.105  0.00  0.00    +0.000 HD
ATOM   1101  H   A   B  32       9.847  -7.569  27.721  0.00  0.00    +0.000 HD
ENDBRANCH10891090
BRANCH10881102
ATOM   1102  O2' A   B  32       7.990   0.720  26.554  0.00  0.00    +0.000 OA
ATOM   1103  H   A   B  32       7.384   1.053  25.874  0.00  0.00    +0.000 HD
ENDBRANCH10881102
BRANCH10851104
ATOM   1104  C5' A   B  32       8.927  -0.082  22.294  0.00  0.00    +0.000 C 
BRANCH11041105
ATOM   1105  O5' A   B  32       9.771  -1.220  22.165  0.00  0.00    +0.000 OA
BRANCH11051106
ATOM   1106  P   A   B  32      10.154  -1.793  20.728  0.00  0.00    +0.000 P 
ATOM   1107  OP1 A   B  32      10.725  -0.688  19.924  0.00  0.00    +0.000 OA
BRANCH11061108
ATOM   1108  OP2 A   B  32      10.932  -3.042  20.925  0.00  0.00    +0.000 OA
ATOM   1109  H   A   B  32      11.177  -3.410  20.062  0.00  0.00    +0.000 HD
ENDBRANCH11061108
BRANCH11061110
ATOM   1110  O3' A   B  31       8.750  -2.157  20.104  0.00  0.00    +0.000 OA
BRANCH11101113
ATOM   1111  C4' A   B  31       7.223  -3.927  19.395  0.00  0.00    +0.000 C 
ATOM   1112  O4' A   B  31       6.260  -4.764  20.094  0.00  0.00    +0.000 OA
ATOM   1113  C3' A   B  31       8.071  -3.344  20.505  0.00  0.00    +0.000 C 
ATOM   1114  C2' A   B  31       7.043  -3.117  21.602  0.00  0.00    +0.000 C 
ATOM   1115  C1' A   B  31       6.152  -4.348  21.439  0.00  0.00    +0.000 C 
BRANCH11151116
ATOM   1116  N9  A   B  31       6.563  -5.457  22.313  0.00  0.00    +0.000 N 
ATOM   1117  C8  A   B  31       7.305  -6.562  21.983  0.00  0.00    +0.000 A 
ATOM   1118  N7  A   B  31       7.502  -7.378  22.989  0.00  0.00    +0.000 NA
ATOM   1119  C5  A   B  31       6.848  -6.776  24.052  0.00  0.00    +0.000 A 
ATOM   1120  C6  A   B  31       6.685  -7.140  25.397  0.00  0.00    +0.000 A 
ATOM   1121  N6  A   B  31       7.194  -8.256  25.923  0.00  0.00    +0.000 N 
ATOM   1122  N1  A   B  31       5.978  -6.313  26.191  0.00  0.00    +0.000 NA
ATOM   1123  C2  A   B  31       5.471  -5.195  25.664  0.00  0.00    +0.000 A 
ATOM   1124  N3  A   B  31       5.555  -4.743  24.412  0.00  0.00    +0.000 NA
ATOM   1125  C4  A   B  31       6.266  -5.588  23.647  0.00  0.00    +0.000 A 
ATOM   1126  H   A   B  31       7.714  -8.873  25.359  0.00  0.00    +0.000 HD
ATOM   1127  H   A   B  31       7.050  -8.462  26.875  0.00  0.00    +0.000 HD
ENDBRANCH11151116
BRANCH11141128
ATOM   1128  O2' A   B  31       6.266  -1.955  21.365  0.00  0.00    +0.000 OA
ATOM   1129  H   A   B  31       5.840  -2.022  20.496  0.00  0.00    +0.000 HD
ENDBRANCH11141128
BRANCH11111130
ATOM   1130  C5' A   B  31       7.964  -4.741  18.365  0.00  0.00    +0.000 C 
BRANCH11301131
ATOM   1131  O5' A   B  31       8.675  -5.808  18.977  0.00  0.00    +0.000 OA
BRANCH11311132
ATOM   1132  P   A   B  31       9.235  -7.018  18.108  0.00  0.00    +0.000 P 
ATOM   1133  OP1 A   B  31      10.062  -6.458  17.011  0.00  0.00    +0.000 OA
BRANCH11321134
ATOM   1134  OP2 A   B  31       9.820  -8.018  19.036  0.00  0.00    +0.000 OA
ATOM   1135  H   A   B  31      10.169  -8.766  18.527  0.00  0.00    +0.000 HD
ENDBRANCH11321134
BRANCH11321136
ATOM   1136  O3' A   B  30       7.929  -7.617  17.460  0.00  0.00    +0.000 OA
BRANCH11361139
ATOM   1137  C4' A   B  30       6.333  -9.462  17.400  0.00  0.00    +0.000 C 
ATOM   1138  O4' A   B  30       5.181  -9.825  18.211  0.00  0.00    +0.000 OA
ATOM   1139  C3' A   B  30       7.056  -8.431  18.237  0.00  0.00    +0.000 C 
ATOM   1140  C2' A   B  30       5.896  -7.665  18.860  0.00  0.00    +0.000 C 
ATOM   1141  C1' A   B  30       4.904  -8.794  19.136  0.00  0.00    +0.000 C 
BRANCH11411142
ATOM   1142  N9  A   B  30       5.033  -9.335  20.499  0.00  0.00    +0.000 N 
ATOM   1143  C8  A   B  30       5.698 -10.465  20.905  0.00  0.00    +0.000 A 
ATOM   1144  N7  A   B  30       5.623 -10.681  22.195  0.00  0.00    +0.000 NA
ATOM   1145  C5  A   B  30       4.861  -9.626  22.676  0.00  0.00    +0.000 A 
ATOM   1146  C6  A   B  30       4.422  -9.278  23.962  0.00  0.00    +0.000 A 
ATOM   1147  N6  A   B  30       4.705  -9.991  25.054  0.00  0.00    +0.000 N 
ATOM   1148  N1  A   B  30       3.681  -8.160  24.095  0.00  0.00    +0.000 NA
ATOM   1149  C2  A   B  30       3.402  -7.445  23.002  0.00  0.00    +0.000 A 
ATOM   1150  N3  A   B  30       3.753  -7.668  21.734  0.00  0.00    +0.000 NA
ATOM   1151  C4  A   B  30       4.492  -8.787  21.637  0.00  0.00    +0.000 A 
ATOM   1152  H   A   B  30       5.245 -10.811  24.980  0.00  0.00    +0.000 HD
ATOM   1153  H   A   B  30       4.374  -9.697  25.933  0.00  0.00    +0.000 HD
ENDBRANCH11411142
BRANCH11401154
ATOM   1154  O2' A   B  30       5.315  -6.756  17.944  0.00  0.00    +0.000 OA
ATOM   1155  H   A   B  30       5.033  -7.234  17.149  0.00  0.00    +0.000 HD
ENDBRANCH11401154
BRANCH11371156
ATOM   1156  C5' A   B  30       7.128 -10.699  17.057  0.00  0.00    +0.000 C 
BRANCH11561157
ATOM   1157  O5' A   B  30       7.618 -11.331  18.228  0.00  0.00    +0.000 OA
BRANCH11571158
ATOM   1158  P   A   B  30       8.154 -12.831  18.183  0.00  0.00    +0.000 P 
ATOM   1159  OP1 A   B  30       9.201 -12.916  17.133  0.00  0.00    +0.000 OA
BRANCH11581160
ATOM   1160  OP2 A   B  30       8.470 -13.249  19.571  0.00  0.00    +0.000 OA
ATOM   1161  H   A   B  30       8.799 -14.162  19.567  0.00  0.00    +0.000 HD
ENDBRANCH11581160
BRANCH11581162
ATOM   1162  O3' A   B  29       6.888 -13.636  17.671  0.00  0.00    +0.000 OA
BRANCH11621165
ATOM   1163  C4' A   B  29       5.152 -15.256  18.221  0.00  0.00    +0.000 C 
ATOM   1164  O4' A   B  29       3.860 -15.162  18.880  0.00  0.00    +0.000 OA
ATOM   1165  C3' A   B  29       5.831 -13.949  18.572  0.00  0.00    +0.000 C 
ATOM   1166  C2' A   B  29       4.671 -12.967  18.517  0.00  0.00    +0.000 C 
ATOM   1167  C1' A   B  29       3.537 -13.806  19.110  0.00  0.00    +0.000 C 
BRANCH11671168
ATOM   1168  N9  A   B  29       3.375 -13.598  20.556  0.00  0.00    +0.000 N 
ATOM   1169  C8  A   B  29       3.811 -14.395  21.582  0.00  0.00    +0.000 A 
ATOM   1170  N7  A   B  29       3.497 -13.938  22.770  0.00  0.00    +0.000 NA
ATOM   1171  C5  A   B  29       2.810 -12.761  22.509  0.00  0.00    +0.000 A 
ATOM   1172  C6  A   B  29       2.212 -11.805  23.345  0.00  0.00    +0.000 A 
ATOM   1173  N6  A   B  29       2.213 -11.889  24.678  0.00  0.00    +0.000 N 
ATOM   1174  N1  A   B  29       1.611 -10.747  22.765  0.00  0.00    +0.000 NA
ATOM   1175  C2  A   B  29       1.613 -10.663  21.430  0.00  0.00    +0.000 A 
ATOM   1176  N3  A   B  29       2.138 -11.499  20.535  0.00  0.00    +0.000 NA
ATOM   1177  C4  A   B  29       2.729 -12.540  21.147  0.00  0.00    +0.000 A 
ATOM   1178  H   A   B  29       2.646 -12.653  25.123  0.00  0.00    +0.000 HD
ATOM   1179  H   A   B  29       1.781 -11.187  25.216  0.00  0.00    +0.000 HD
ENDBRANCH11671168
BRANCH11661180
ATOM   1180  O2' A   B  29       4.339 -12.622  17.184  0.00  0.00    +0.000 OA
ATOM   1181  H   A   B  29       4.141 -13.428  16.681  0.00  0.00    +0.000 HD
ENDBRANCH11661180
BRANCH11631182
ATOM   1182  C5' A   B  29       5.868 -16.504  18.673  0.00  0.00    +0.000 C 
BRANCH11821183
ATOM   1183  O5' A   B  29       6.176 -16.443  20.054  0.00  0.00    +0.000 OA
BRANCH11831184
ATOM   1184  P   A   B  29       6.637 -17.747  20.844  0.00  0.00    +0.000 P 
ATOM   1185  OP1 A   B  29       7.812 -18.319  20.144  0.00  0.00    +0.000 OA
BRANCH11841186
ATOM   1186  OP2 A   B  29       6.728 -17.407  22.286  0.00  0.00    +0.000 OA
ATOM   1187  H   A   B  29       7.479 -16.811  22.431  0.00  0.00    +0.000 HD
ENDBRANCH11841186
BRANCH11841188
ATOM   1188  O3' U   B  28       5.405 -18.723  20.616  0.00  0.00    +0.000 OA
BRANCH11881191
ATOM   1189  C4' U   B  28       3.552 -19.896  21.666  0.00  0.00    +0.000 C 
ATOM   1190  O4' U   B  28       2.186 -19.526  21.999  0.00  0.00    +0.000 OA
ATOM   1191  C3' U   B  28       4.225 -18.572  21.389  0.00  0.00    +0.000 C 
ATOM   1192  C2' U   B  28       3.124 -17.796  20.679  0.00  0.00    +0.000 C 
ATOM   1193  C1' U   B  28       1.884 -18.256  21.453  0.00  0.00    +0.000 C 
BRANCH11931194
ATOM   1194  N1  U   B  28       1.514 -17.333  22.550  0.00  0.00    +0.000 N 
ATOM   1195  C2  U   B  28       0.847 -16.169  22.209  0.00  0.00    +0.000 A 
ATOM   1196  O2  U   B  28       0.567 -15.875  21.060  0.00  0.00    +0.000 OA
ATOM   1197  N3  U   B  28       0.521 -15.351  23.266  0.00  0.00    +0.000 N 
ATOM   1198  C4  U   B  28       0.786 -15.575  24.598  0.00  0.00    +0.000 A 
ATOM   1199  O4  U   B  28       0.425 -14.745  25.434  0.00  0.00    +0.000 OA
ATOM   1200  C5  U   B  28       1.478 -16.798  24.870  0.00  0.00    +0.000 A 
ATOM   1201  C6  U   B  28       1.808 -17.614  23.862  0.00  0.00    +0.000 A 
ATOM   1202  H   U   B  28       0.048 -14.516  23.046  0.00  0.00    +0.000 HD
ENDBRANCH11931194
BRANCH11921203
ATOM   1203  O2' U   B  28       2.993 -18.189  19.330  0.00  0.00    +0.000 OA
ATOM   1204  H   U   B  28       2.833 -19.145  19.286  0.00  0.00    +0.000 HD
ENDBRANCH11921203
BRANCH11891205
ATOM   1205  C5' U   B  28       4.155 -20.715  22.782  0.00  0.00    +0.000 C 
BRANCH12051206
ATOM   1206  O5' U   B  28       4.213 -19.972  23.990  0.00  0.00    +0.000 OA
BRANCH12061207
ATOM   1207  P   U   B  28       4.527 -20.686  25.379  0.00  0.00    +0.000 P 
ATOM   1208  OP1 U   B  28       5.813 -21.406  25.245  0.00  0.00    +0.000 OA
BRANCH12071209
ATOM   1209  OP2 U   B  28       4.347 -19.687  26.466  0.00  0.00    +0.000 OA
ATOM   1210  H   U   B  28       5.051 -19.022  26.414  0.00  0.00    +0.000 HD
ENDBRANCH12071209
BRANCH12071211
ATOM   1211  O3' U   B  27       3.374 -21.762  25.476  0.00  0.00    +0.000 OA
BRANCH12111214
ATOM   1212  C4' U   B  27       1.300 -22.497  26.521  0.00  0.00    +0.000 C 
ATOM   1213  O4' U   B  27      -0.091 -22.095  26.384  0.00  0.00    +0.000 OA
ATOM   1214  C3' U   B  27       2.061 -21.376  25.852  0.00  0.00    +0.000 C 
ATOM   1215  C2' U   B  27       1.166 -21.049  24.666  0.00  0.00    +0.000 C 
ATOM   1216  C1' U   B  27      -0.225 -21.208  25.289  0.00  0.00    +0.000 C 
BRANCH12161217
ATOM   1217  N1  U   B  27      -0.783 -19.923  25.767  0.00  0.00    +0.000 N 
ATOM   1218  C2  U   B  27      -1.287 -19.053  24.813  0.00  0.00    +0.000 A 
ATOM   1219  O2  U   B  27      -1.281 -19.299  23.622  0.00  0.00    +0.000 OA
ATOM   1220  N3  U   B  27      -1.798 -17.876  25.304  0.00  0.00    +0.000 N 
ATOM   1221  C4  U   B  27      -1.857 -17.488  26.622  0.00  0.00    +0.000 A 
ATOM   1222  O4  U   B  27      -2.349 -16.396  26.907  0.00  0.00    +0.000 OA
ATOM   1223  C5  U   B  27      -1.319 -18.439  27.547  0.00  0.00    +0.000 A 
ATOM   1224  C6  U   B  27      -0.815 -19.595  27.100  0.00  0.00    +0.000 A 
ATOM   1225  H   U   B  27      -2.160 -17.243  24.642  0.00  0.00    +0.000 HD
ENDBRANCH12161217
BRANCH12151226
ATOM   1226  O2' U   B  27       1.309 -21.993  23.625  0.00  0.00    +0.000 OA
ATOM   1227  H   U   B  27       1.127 -22.882  23.968  0.00  0.00    +0.000 HD
ENDBRANCH12151226
BRANCH12121228
ATOM   1228  C5' U   B  27       1.626 -22.747  27.973  0.00  0.00    +0.000 C 
BRANCH12281229
ATOM   1229  O5' U   B  27       1.376 -21.599  28.768  0.00  0.00    +0.000 OA
BRANCH12291230
ATOM   1230  P   U   B  27       1.294 -21.709  30.358  0.00  0.00    +0.000 P 
ATOM   1231  OP1 U   B  27       2.545 -22.341  30.838  0.00  0.00    +0.000 OA
BRANCH12301232
ATOM   1232  OP2 U   B  27       0.882 -20.386  30.892  0.00  0.00    +0.000 OA
ATOM   1233  H   U   B  27       0.048 -20.116  30.478  0.00  0.00    +0.000 HD
ENDBRANCH12301232
BRANCH12301234
ATOM   1234  O3' U   B  26       0.117 -22.740  30.572  0.00  0.00    +0.000 OA
BRANCH12341237
ATOM   1235  C4' U   B  26      -2.200 -23.091  31.254  0.00  0.00    +0.000 C 
ATOM   1236  O4' U   B  26      -3.480 -22.894  30.593  0.00  0.00    +0.000 OA
ATOM   1237  C3' U   B  26      -1.227 -22.337  30.375  0.00  0.00    +0.000 C 
ATOM   1238  C2' U   B  26      -1.757 -22.648  28.983  0.00  0.00    +0.000 C 
ATOM   1239  C1' U   B  26      -3.268 -22.594  29.226  0.00  0.00    +0.000 C 
BRANCH12391240
ATOM   1240  N1  U   B  26      -3.833 -21.259  28.926  0.00  0.00    +0.000 N 
ATOM   1241  C2  U   B  26      -4.061 -20.951  27.598  0.00  0.00    +0.000 A 
ATOM   1242  O2  U   B  26      -3.821 -21.722  26.687  0.00  0.00    +0.000 OA
ATOM   1243  N3  U   B  26      -4.583 -19.700  27.369  0.00  0.00    +0.000 N 
ATOM   1244  C4  U   B  26      -4.894 -18.748  28.312  0.00  0.00    +0.000 A 
ATOM   1245  O4  U   B  26      -5.357 -17.669  27.950  0.00  0.00    +0.000 OA
ATOM   1246  C5  U   B  26      -4.629 -19.142  29.662  0.00  0.00    +0.000 A 
ATOM   1247  C6  U   B  26      -4.119 -20.353  29.917  0.00  0.00    +0.000 A 
ATOM   1248  H   U   B  26      -4.752 -19.460  26.429  0.00  0.00    +0.000 HD
ENDBRANCH12391240
BRANCH12381249
ATOM   1249  O2' U   B  26      -1.407 -23.954  28.565  0.00  0.00    +0.000 OA
ATOM   1250  H   U   B  26      -1.728 -24.598  29.215  0.00  0.00    +0.000 HD
ENDBRANCH12381249
BRANCH12351251
ATOM   1251  C5' U   B  26      -2.286 -22.638  32.689  0.00  0.00    +0.000 C 
BRANCH12511252
ATOM   1252  O5' U   B  26      -2.644 -21.264  32.782  0.00  0.00    +0.000 OA
BRANCH12521253
ATOM   1253  P   U   B  26      -3.139 -20.637  34.161  0.00  0.00    +0.000 P 
ATOM   1254  OP2 U   B  26      -3.534 -19.228  33.914  0.00  0.00    +0.000 OA
BRANCH12531255
ATOM   1255  OP1 U   B  26      -2.123 -20.948  35.192  0.00  0.00    +0.000 OA
ATOM   1256  H   U   B  26      -1.317 -20.437  35.016  0.00  0.00    +0.000 HD
ENDBRANCH12531255
BRANCH12531257
ATOM   1257  O3' U   B  25      -4.432 -21.481  34.475  0.00  0.00    +0.000 OA
BRANCH12571260
ATOM   1258  C4' U   B  25      -6.870 -21.598  34.547  0.00  0.00    +0.000 C 
ATOM   1259  O4' U   B  25      -7.896 -21.728  33.527  0.00  0.00    +0.000 OA
ATOM   1260  C3' U   B  25      -5.631 -21.247  33.753  0.00  0.00    +0.000 C 
ATOM   1261  C2' U   B  25      -5.784 -22.140  32.528  0.00  0.00    +0.000 C 
ATOM   1262  C1' U   B  25      -7.294 -22.053  32.288  0.00  0.00    +0.000 C 
BRANCH12621263
ATOM   1263  N1  U   B  25      -7.638 -21.022  31.286  0.00  0.00    +0.000 N 
ATOM   1264  C2  U   B  25      -7.542 -21.385  29.955  0.00  0.00    +0.000 A 
ATOM   1265  O2  U   B  25      -7.199 -22.498  29.597  0.00  0.00    +0.000 OA
ATOM   1266  N3  U   B  25      -7.866 -20.401  29.051  0.00  0.00    +0.000 N 
ATOM   1267  C4  U   B  25      -8.266 -19.115  29.342  0.00  0.00    +0.000 A 
ATOM   1268  O4  U   B  25      -8.522 -18.345  28.419  0.00  0.00    +0.000 OA
ATOM   1269  C5  U   B  25      -8.337 -18.817  30.738  0.00  0.00    +0.000 A 
ATOM   1270  C6  U   B  25      -8.027 -19.755  31.640  0.00  0.00    +0.000 A 
ATOM   1271  H   U   B  25      -7.806 -20.640  28.098  0.00  0.00    +0.000 HD
ENDBRANCH12621263
BRANCH12611272
ATOM   1272  O2' U   B  25      -5.444 -23.483  32.809  0.00  0.00    +0.000 OA
ATOM   1273  H   U   B  25      -5.983 -23.805  33.548  0.00  0.00    +0.000 HD
ENDBRANCH12611272
BRANCH12581274
ATOM   1274  C5' U   B  25      -7.305 -20.602  35.594  0.00  0.00    +0.000 C 
BRANCH12741275
ATOM   1275  O5' U   B  25      -7.630 -19.337  35.021  0.00  0.00    +0.000 OA
BRANCH12751276
ATOM   1276  P   U   B  25      -8.544 -18.298  35.807  0.00  0.00    +0.000 P 
ATOM   1277  OP2 U   B  25      -8.737 -17.104  34.949  0.00  0.00    +0.000 OA
BRANCH12761278
ATOM   1278  OP1 U   B  25      -7.993 -18.148  37.172  0.00  0.00    +0.000 OA
ATOM   1279  H   U   B  25      -7.148 -17.674  37.129  0.00  0.00    +0.000 HD
ENDBRANCH12761278
BRANCH12761280
ATOM   1280  O3' U   B  24      -9.913 -19.071  35.914  0.00  0.00    +0.000 OA
BRANCH12801283
ATOM   1281  C4' U   B  24     -12.237 -19.307  35.218  0.00  0.00    +0.000 C 
ATOM   1282  O4' U   B  24     -12.868 -19.649  33.960  0.00  0.00    +0.000 OA
ATOM   1283  C3' U   B  24     -10.800 -19.097  34.808  0.00  0.00    +0.000 C 
ATOM   1284  C2' U   B  24     -10.588 -20.303  33.891  0.00  0.00    +0.000 C 
ATOM   1285  C1' U   B  24     -11.941 -20.376  33.178  0.00  0.00    +0.000 C 
BRANCH12851286
ATOM   1286  N1  U   B  24     -11.879 -19.845  31.799  0.00  0.00    +0.000 N 
ATOM   1287  C2  U   B  24     -11.479 -20.741  30.818  0.00  0.00    +0.000 A 
ATOM   1288  O2  U   B  24     -11.195 -21.903  31.059  0.00  0.00    +0.000 OA
ATOM   1289  N3  U   B  24     -11.420 -20.227  29.546  0.00  0.00    +0.000 N 
ATOM   1290  C4  U   B  24     -11.714 -18.942  29.161  0.00  0.00    +0.000 A 
ATOM   1291  O4  U   B  24     -11.616 -18.638  27.975  0.00  0.00    +0.000 OA
ATOM   1292  C5  U   B  24     -12.113 -18.075  30.234  0.00  0.00    +0.000 A 
ATOM   1293  C6  U   B  24     -12.178 -18.544  31.486  0.00  0.00    +0.000 A 
ATOM   1294  H   U   B  24     -11.137 -20.846  28.834  0.00  0.00    +0.000 HD
ENDBRANCH12851286
BRANCH12841295
ATOM   1295  O2' U   B  24     -10.397 -21.490  34.621  0.00  0.00    +0.000 OA
ATOM   1296  H   U   B  24     -11.152 -21.630  35.214  0.00  0.00    +0.000 HD
ENDBRANCH12841295
BRANCH12811297
ATOM   1297  C5' U   B  24     -12.944 -18.158  35.896  0.00  0.00    +0.000 C 
BRANCH12971298
ATOM   1298  O5' U   B  24     -13.286 -17.103  35.022  0.00  0.00    +0.000 OA
BRANCH12981299
ATOM   1299  P   U   B  24     -14.534 -16.174  35.357  0.00  0.00    +0.000 P 
ATOM   1300  OP2 U   B  24     -14.281 -14.818  34.803  0.00  0.00    +0.000 OA
BRANCH12991301
ATOM   1301  OP1 U   B  24     -14.838 -16.327  36.798  0.00  0.00    +0.000 OA
ATOM   1302  H   U   B  24     -15.597 -15.769  37.029  0.00  0.00    +0.000 HD
ENDBRANCH12991301
BRANCH12991303
ATOM   1303  O3' U   B  23     -15.679 -16.871  34.524  0.00  0.00    +0.000 OA
BRANCH13031306
ATOM   1304  C4' U   B  23     -17.590 -16.757  33.055  0.00  0.00    +0.000 C 
ATOM   1305  O4' U   B  23     -17.397 -17.728  31.990  0.00  0.00    +0.000 OA
ATOM   1306  C3' U   B  23     -16.216 -16.197  33.395  0.00  0.00    +0.000 C 
ATOM   1307  C2' U   B  23     -15.397 -16.519  32.154  0.00  0.00    +0.000 C 
ATOM   1308  C1' U   B  23     -16.011 -17.845  31.716  0.00  0.00    +0.000 C 
BRANCH13081309
ATOM   1309  N1  U   B  23     -15.830 -18.137  30.287  0.00  0.00    +0.000 N 
ATOM   1310  C2  U   B  23     -15.337 -19.387  29.943  0.00  0.00    +0.000 A 
ATOM   1311  O2  U   B  23     -15.079 -20.241  30.775  0.00  0.00    +0.000 OA
ATOM   1312  N3  U   B  23     -15.169 -19.600  28.596  0.00  0.00    +0.000 N 
ATOM   1313  C4  U   B  23     -15.432 -18.712  27.577  0.00  0.00    +0.000 A 
ATOM   1314  O4  U   B  23     -15.227 -19.053  26.422  0.00  0.00    +0.000 OA
ATOM   1315  C5  U   B  23     -15.932 -17.438  28.011  0.00  0.00    +0.000 A 
ATOM   1316  C6  U   B  23     -16.107 -17.199  29.321  0.00  0.00    +0.000 A 
ATOM   1317  H   U   B  23     -14.823 -20.483  28.331  0.00  0.00    +0.000 HD
ENDBRANCH13081309
BRANCH13071318
ATOM   1318  O2' U   B  23     -14.005 -16.648  32.363  0.00  0.00    +0.000 OA
ATOM   1319  H   U   B  23     -13.839 -17.353  33.008  0.00  0.00    +0.000 HD
ENDBRANCH13071318
BRANCH13041320
ATOM   1320  C5' U   B  23     -18.607 -15.734  32.608  0.00  0.00    +0.000 C 
BRANCH13201321
ATOM   1321  O5' U   B  23     -18.108 -14.905  31.587  0.00  0.00    +0.000 OA
BRANCH13211322
ATOM   1322  P   U   B  23     -18.531 -13.384  31.474  0.00  0.00    +0.000 P 
ATOM   1323  OP1 U   B  23     -18.111 -12.885  30.132  0.00  0.00    +0.000 OA
BRANCH13221324
ATOM   1324  OP2 U   B  23     -19.947 -13.260  31.880  0.00  0.00    +0.000 OA
ATOM   1325  H   U   B  23     -20.511 -13.695  31.222  0.00  0.00    +0.000 HD
ENDBRANCH13221324
BRANCH13221326
ATOM   1326  O3' C   B  22     -17.638 -12.662  32.572  0.00  0.00    +0.000 OA
BRANCH13261329
ATOM   1327  C4' C   B  22     -17.882 -10.271  32.956  0.00  0.00    +0.000 C 
ATOM   1328  O4' C   B  22     -18.070  -9.468  34.151  0.00  0.00    +0.000 OA
ATOM   1329  C3' C   B  22     -18.219 -11.675  33.407  0.00  0.00    +0.000 C 
ATOM   1330  C2' C   B  22     -17.665 -11.705  34.826  0.00  0.00    +0.000 C 
ATOM   1331  C1' C   B  22     -17.969 -10.283  35.299  0.00  0.00    +0.000 C 
BRANCH13311332
ATOM   1332  N1  C   B  22     -19.227 -10.190  36.065  0.00  0.00    +0.000 N 
ATOM   1333  C2  C   B  22     -19.202 -10.507  37.424  0.00  0.00    +0.000 A 
ATOM   1334  O2  C   B  22     -18.126 -10.847  37.947  0.00  0.00    +0.000 OA
ATOM   1335  N3  C   B  22     -20.345 -10.435  38.143  0.00  0.00    +0.000 NA
ATOM   1336  C4  C   B  22     -21.485 -10.065  37.554  0.00  0.00    +0.000 A 
ATOM   1337  N4  C   B  22     -22.587 -10.009  38.298  0.00  0.00    +0.000 N 
ATOM   1338  C5  C   B  22     -21.538  -9.740  36.167  0.00  0.00    +0.000 A 
ATOM   1339  C6  C   B  22     -20.402  -9.815  35.470  0.00  0.00    +0.000 A 
ATOM   1340  H   C   B  22     -23.442  -9.740  37.891  0.00  0.00    +0.000 HD
ATOM   1341  H   C   B  22     -22.547 -10.237  39.255  0.00  0.00    +0.000 HD
ENDBRANCH13311332
BRANCH13301342
ATOM   1342  O2' C   B  22     -16.268 -11.905  34.848  0.00  0.00    +0.000 OA
ATOM   1343  H   C   B  22     -15.834 -11.214  34.323  0.00  0.00    +0.000 HD
ENDBRANCH13301342
BRANCH13271344
ATOM   1344  C5' C   B  22     -18.728  -9.716  31.834  0.00  0.00    +0.000 C 
BRANCH13441345
ATOM   1345  O5' C   B  22     -20.108  -9.766  32.162  0.00  0.00    +0.000 OA
BRANCH13451346
ATOM   1346  P   C   B  22     -21.192  -9.006  31.276  0.00  0.00    +0.000 P 
ATOM   1347  OP1 C   B  22     -21.022  -9.428  29.862  0.00  0.00    +0.000 OA
BRANCH13461348
ATOM   1348  OP2 C   B  22     -22.517  -9.165  31.938  0.00  0.00    +0.000 OA
ATOM   1349  H   C   B  22     -23.196  -8.710  31.416  0.00  0.00    +0.000 HD
ENDBRANCH13461348
BRANCH13461350
ATOM   1350  O3' A   B  21     -20.741  -7.478  31.382  0.00  0.00    +0.000 OA
BRANCH13501353
ATOM   1351  C4' A   B  21     -21.287  -5.289  32.311  0.00  0.00    +0.000 C 
ATOM   1352  O4' A   B  21     -21.035  -4.653  33.593  0.00  0.00    +0.000 OA
ATOM   1353  C3' A   B  21     -20.990  -6.749  32.575  0.00  0.00    +0.000 C 
ATOM   1354  C2' A   B  21     -19.776  -6.661  33.491  0.00  0.00    +0.000 C 
ATOM   1355  C1' A   B  21     -20.136  -5.445  34.346  0.00  0.00    +0.000 C 
BRANCH13551356
ATOM   1356  N9  A   B  21     -20.770  -5.829  35.613  0.00  0.00    +0.000 N 
ATOM   1357  C8  A   B  21     -22.095  -5.791  35.955  0.00  0.00    +0.000 A 
ATOM   1358  N7  A   B  21     -22.333  -6.205  37.176  0.00  0.00    +0.000 NA
ATOM   1359  C5  A   B  21     -21.081  -6.540  37.669  0.00  0.00    +0.000 A 
ATOM   1360  C6  A   B  21     -20.648  -7.044  38.901  0.00  0.00    +0.000 A 
ATOM   1361  N6  A   B  21     -21.474  -7.313  39.918  0.00  0.00    +0.000 N 
ATOM   1362  N1  A   B  21     -19.332  -7.267  39.066  0.00  0.00    +0.000 NA
ATOM   1363  C2  A   B  21     -18.505  -7.001  38.049  0.00  0.00    +0.000 A 
ATOM   1364  N3  A   B  21     -18.788  -6.522  36.839  0.00  0.00    +0.000 NA
ATOM   1365  C4  A   B  21     -20.109  -6.312  36.714  0.00  0.00    +0.000 A 
ATOM   1366  H   A   B  21     -22.441  -7.158  39.821  0.00  0.00    +0.000 HD
ATOM   1367  H   A   B  21     -21.115  -7.666  40.764  0.00  0.00    +0.000 HD
ENDBRANCH13551356
BRANCH13541368
ATOM   1368  O2' A   B  21     -18.591  -6.381  32.772  0.00  0.00    +0.000 OA
ATOM   1369  H   A   B  21     -18.706  -5.562  32.265  0.00  0.00    +0.000 HD
ENDBRANCH13541368
BRANCH13511370
ATOM   1370  C5' A   B  21     -22.686  -4.966  31.840  0.00  0.00    +0.000 C 
BRANCH13701371
ATOM   1371  O5' A   B  21     -23.656  -5.392  32.784  0.00  0.00    +0.000 OA
BRANCH13711372
ATOM   1372  P   A   B  21     -25.169  -4.912  32.651  0.00  0.00    +0.000 P 
ATOM   1373  OP1 A   B  21     -25.624  -5.188  31.267  0.00  0.00    +0.000 OA
BRANCH13721374
ATOM   1374  OP2 A   B  21     -25.925  -5.472  33.801  0.00  0.00    +0.000 OA
ATOM   1375  H   A   B  21     -25.988  -6.435  33.708  0.00  0.00    +0.000 HD
ENDBRANCH13721374
BRANCH13721376
ATOM   1376  O3' A   B  20     -25.074  -3.332  32.818  0.00  0.00    +0.000 OA
BRANCH13761379
ATOM   1377  C4' A   B  20     -25.444  -1.407  34.280  0.00  0.00    +0.000 C 
ATOM   1378  O4' A   B  20     -24.694  -0.830  35.385  0.00  0.00    +0.000 OA
ATOM   1379  C3' A   B  20     -24.806  -2.766  34.092  0.00  0.00    +0.000 C 
ATOM   1380  C2' A   B  20     -23.335  -2.452  34.317  0.00  0.00    +0.000 C 
ATOM   1381  C1' A   B  20     -23.424  -1.450  35.466  0.00  0.00    +0.000 C 
BRANCH13811382
ATOM   1382  N9  A   B  20     -23.292  -2.113  36.771  0.00  0.00    +0.000 N 
ATOM   1383  C8  A   B  20     -24.272  -2.451  37.664  0.00  0.00    +0.000 A 
ATOM   1384  N7  A   B  20     -23.815  -3.041  38.744  0.00  0.00    +0.000 NA
ATOM   1385  C5  A   B  20     -22.443  -3.099  38.543  0.00  0.00    +0.000 A 
ATOM   1386  C6  A   B  20     -21.391  -3.607  39.312  0.00  0.00    +0.000 A 
ATOM   1387  N6  A   B  20     -21.564  -4.186  40.507  0.00  0.00    +0.000 N 
ATOM   1388  N1  A   B  20     -20.143  -3.507  38.821  0.00  0.00    +0.000 NA
ATOM   1389  C2  A   B  20     -19.968  -2.931  37.627  0.00  0.00    +0.000 A 
ATOM   1390  N3  A   B  20     -20.877  -2.411  36.804  0.00  0.00    +0.000 NA
ATOM   1391  C4  A   B  20     -22.109  -2.530  37.328  0.00  0.00    +0.000 A 
ATOM   1392  H   A   B  20     -22.468  -4.270  40.887  0.00  0.00    +0.000 HD
ATOM   1393  H   A   B  20     -20.787  -4.527  41.006  0.00  0.00    +0.000 HD
ENDBRANCH13811382
BRANCH13801394
ATOM   1394  O2' A   B  20     -22.755  -1.816  33.198  0.00  0.00    +0.000 OA
ATOM   1395  H   A   B  20     -23.257  -1.014  32.986  0.00  0.00    +0.000 HD
ENDBRANCH13801394
BRANCH13771396
ATOM   1396  C5' A   B  20     -26.919  -1.403  34.601  0.00  0.00    +0.000 C 
BRANCH13961397
ATOM   1397  O5' A   B  20     -27.195  -2.176  35.763  0.00  0.00    +0.000 OA
BRANCH13971398
ATOM   1398  P   A   B  20     -28.612  -2.068  36.482  0.00  0.00    +0.000 P 
ATOM   1399  OP1 A   B  20     -29.667  -2.275  35.461  0.00  0.00    +0.000 OA
BRANCH13981400
ATOM   1400  OP2 A   B  20     -28.574  -2.933  37.690  0.00  0.00    +0.000 OA
ATOM   1401  H   A   B  20     -28.546  -3.864  37.420  0.00  0.00    +0.000 HD
ENDBRANCH13981400
BRANCH13981402
ATOM   1402  O3' A   B  19     -28.658  -0.544  36.938  0.00  0.00    +0.000 OA
BRANCH14021405
ATOM   1403  C4' A   B  19     -28.558   0.961  38.855  0.00  0.00    +0.000 C 
ATOM   1404  O4' A   B  19     -27.466   1.627  39.551  0.00  0.00    +0.000 OA
ATOM   1405  C3' A   B  19     -27.865  -0.100  38.029  0.00  0.00    +0.000 C 
ATOM   1406  C2' A   B  19     -26.585   0.607  37.607  0.00  0.00    +0.000 C 
ATOM   1407  C1' A   B  19     -26.248   1.382  38.874  0.00  0.00    +0.000 C 
BRANCH14071408
ATOM   1408  N9  A   B  19     -25.359   0.625  39.769  0.00  0.00    +0.000 N 
ATOM   1409  C8  A   B  19     -25.689  -0.047  40.916  0.00  0.00    +0.000 A 
ATOM   1410  N7  A   B  19     -24.665  -0.625  41.501  0.00  0.00    +0.000 NA
ATOM   1411  C5  A   B  19     -23.590  -0.313  40.681  0.00  0.00    +0.000 A 
ATOM   1412  C6  A   B  19     -22.223  -0.629  40.747  0.00  0.00    +0.000 A 
ATOM   1413  N6  A   B  19     -21.683  -1.366  41.730  0.00  0.00    +0.000 N 
ATOM   1414  N1  A   B  19     -21.421  -0.165  39.771  0.00  0.00    +0.000 NA
ATOM   1415  C2  A   B  19     -21.960   0.570  38.791  0.00  0.00    +0.000 A 
ATOM   1416  N3  A   B  19     -23.230   0.936  38.615  0.00  0.00    +0.000 NA
ATOM   1417  C4  A   B  19     -24.004   0.456  39.609  0.00  0.00    +0.000 A 
ATOM   1418  H   A   B  19     -20.717  -1.558  41.728  0.00  0.00    +0.000 HD
ATOM   1419  H   A   B  19     -22.252  -1.715  42.453  0.00  0.00    +0.000 HD
ENDBRANCH14071408
BRANCH14061420
ATOM   1420  O2' A   B  19     -26.815   1.521  36.556  0.00  0.00    +0.000 OA
ATOM   1421  H   A   B  19     -27.498   2.156  36.823  0.00  0.00    +0.000 HD
ENDBRANCH14061420
BRANCH14031422
ATOM   1422  C5' A   B  19     -29.563   0.448  39.854  0.00  0.00    +0.000 C 
BRANCH14221423
ATOM   1423  O5' A   B  19     -29.001  -0.599  40.645  0.00  0.00    +0.000 OA
BRANCH14231424
ATOM   1424  P   A   B  19     -29.850  -1.283  41.804  0.00  0.00    +0.000 P 
ATOM   1425  OP1 A   B  19     -31.170  -1.664  41.245  0.00  0.00    +0.000 OA
BRANCH14241426
ATOM   1426  OP2 A   B  19     -28.997  -2.316  42.454  0.00  0.00    +0.000 OA
ATOM   1427  H   A   B  19     -28.857  -3.053  41.839  0.00  0.00    +0.000 HD
ENDBRANCH14241426
BRANCH14241428
ATOM   1428  O3' G   B  18     -30.074  -0.083  42.813  0.00  0.00    +0.000 OA
BRANCH14281431
ATOM   1429  C4' G   B  18     -29.499   0.842  44.986  0.00  0.00    +0.000 C 
ATOM   1430  O4' G   B  18     -28.438   1.718  45.450  0.00  0.00    +0.000 OA
ATOM   1431  C3' G   B  18     -29.006   0.363  43.636  0.00  0.00    +0.000 C 
ATOM   1432  C2' G   B  18     -28.295   1.592  43.096  0.00  0.00    +0.000 C 
ATOM   1433  C1' G   B  18     -27.654   2.148  44.359  0.00  0.00    +0.000 C 
BRANCH14331434
ATOM   1434  N9  G   B  18     -26.279   1.667  44.560  0.00  0.00    +0.000 N 
ATOM   1435  C8  G   B  18     -25.822   0.863  45.580  0.00  0.00    +0.000 A 
ATOM   1436  N7  G   B  18     -24.550   0.601  45.494  0.00  0.00    +0.000 NA
ATOM   1437  C5  G   B  18     -24.134   1.276  44.354  0.00  0.00    +0.000 A 
ATOM   1438  C6  G   B  18     -22.851   1.365  43.756  0.00  0.00    +0.000 A 
ATOM   1439  O6  G   B  18     -21.792   0.849  44.128  0.00  0.00    +0.000 OA
ATOM   1440  N1  G   B  18     -22.869   2.152  42.609  0.00  0.00    +0.000 NA
ATOM   1441  C2  G   B  18     -23.981   2.773  42.101  0.00  0.00    +0.000 A 
ATOM   1442  N2  G   B  18     -23.805   3.497  40.980  0.00  0.00    +0.000 N 
ATOM   1443  N3  G   B  18     -25.185   2.704  42.649  0.00  0.00    +0.000 N 
ATOM   1444  C4  G   B  18     -25.188   1.942  43.766  0.00  0.00    +0.000 A 
ATOM   1445  H   G   B  18     -22.914   3.554  40.566  0.00  0.00    +0.000 HD
ATOM   1446  H   G   B  18     -24.568   3.970  40.574  0.00  0.00    +0.000 HD
ATOM   1447  H   G   B  18     -25.982   3.154  42.286  0.00  0.00    +0.000 HD
ENDBRANCH14331434
BRANCH14321448
ATOM   1448  O2' G   B  18     -29.204   2.542  42.582  0.00  0.00    +0.000 OA
ATOM   1449  H   G   B  18     -29.843   2.783  43.271  0.00  0.00    +0.000 HD
ENDBRANCH14321448
BRANCH14291450
ATOM   1450  C5' G   B  18     -29.780  -0.233  46.006  0.00  0.00    +0.000 C 
BRANCH14501451
ATOM   1451  O5' G   B  18     -29.018  -0.051  47.194  0.00  0.00    +0.000 OA
BRANCH14511452
ATOM   1452  P   G   B  18     -29.639  -0.342  48.634  0.00  0.00    +0.000 P 
ATOM   1453  OP1 G   B  18     -30.698  -1.366  48.492  0.00  0.00    +0.000 OA
BRANCH14521454
ATOM   1454  OP2 G   B  18     -28.514  -0.582  49.558  0.00  0.00    +0.000 OA
ATOM   1455  H   G   B  18     -28.077  -1.416  49.326  0.00  0.00    +0.000 HD
ENDBRANCH14521454
BRANCH14521456
ATOM   1456  O3' C   B  17     -30.358   1.024  49.010  0.00  0.00    +0.000 OA
BRANCH14561459
ATOM   1457  C4' C   B  17     -29.611   3.208  49.822  0.00  0.00    +0.000 C 
ATOM   1458  O4' C   B  17     -29.482   4.517  49.199  0.00  0.00    +0.000 OA
ATOM   1459  C3' C   B  17     -29.772   2.271  48.646  0.00  0.00    +0.000 C 
ATOM   1460  C2' C   B  17     -30.639   3.093  47.700  0.00  0.00    +0.000 C 
ATOM   1461  C1' C   B  17     -30.048   4.488  47.902  0.00  0.00    +0.000 C 
BRANCH14611462
ATOM   1462  N1  C   B  17     -28.999   4.803  46.907  0.00  0.00    +0.000 N 
ATOM   1463  C2  C   B  17     -29.389   5.212  45.629  0.00  0.00    +0.000 A 
ATOM   1464  O2  C   B  17     -30.600   5.310  45.370  0.00  0.00    +0.000 OA
ATOM   1465  N3  C   B  17     -28.439   5.500  44.705  0.00  0.00    +0.000 NA
ATOM   1466  C4  C   B  17     -27.145   5.387  45.015  0.00  0.00    +0.000 A 
ATOM   1467  N4  C   B  17     -26.246   5.676  44.075  0.00  0.00    +0.000 N 
ATOM   1468  C5  C   B  17     -26.723   4.970  46.307  0.00  0.00    +0.000 A 
ATOM   1469  C6  C   B  17     -27.674   4.691  47.215  0.00  0.00    +0.000 A 
ATOM   1470  H   C   B  17     -26.543   5.964  43.182  0.00  0.00    +0.000 HD
ATOM   1471  H   C   B  17     -25.285   5.601  44.274  0.00  0.00    +0.000 HD
ENDBRANCH14611462
BRANCH14601472
ATOM   1472  O2' C   B  17     -31.997   3.099  48.094  0.00  0.00    +0.000 OA
ATOM   1473  H   C   B  17     -32.068   3.425  49.005  0.00  0.00    +0.000 HD
ENDBRANCH14601472
BRANCH14571474
ATOM   1474  C5' C   B  17     -28.423   2.949  50.710  0.00  0.00    +0.000 C 
BRANCH14741475
ATOM   1475  O5' C   B  17     -27.212   2.925  49.956  0.00  0.00    +0.000 OA
BRANCH14751476
ATOM   1476  P   C   B  17     -25.799   2.997  50.672  0.00  0.00    +0.000 P 
ATOM   1477  OP2 C   B  17     -24.748   3.021  49.618  0.00  0.00    +0.000 OA
BRANCH14761478
ATOM   1478  OP1 C   B  17     -25.748   1.956  51.722  0.00  0.00    +0.000 OA
ATOM   1479  H   C   B  17     -25.698   1.081  51.307  0.00  0.00    +0.000 HD
ENDBRANCH14761478
BRANCH14761480
ATOM   1480  O3' C   B  16     -25.879   4.407  51.370  0.00  0.00    +0.000 OA
BRANCH14801494
ATOM   1481  C4' U   B  15     -22.429  10.751  46.937  0.00  0.00    +0.000 C 
ATOM   1482  O4' U   B  15     -23.421  11.581  46.292  0.00  0.00    +0.000 OA
ATOM   1483  C3' U   B  15     -22.916   9.318  46.860  0.00  0.00    +0.000 C 
ATOM   1484  O3' U   B  15     -23.150   8.784  48.154  0.00  0.00    +0.000 OA
ATOM   1485  C2' U   B  15     -24.200   9.379  46.031  0.00  0.00    +0.000 C 
ATOM   1486  O2' U   B  15     -25.286   8.610  46.535  0.00  0.00    +0.000 OA
ATOM   1487  C1' U   B  15     -24.589  10.845  46.042  0.00  0.00    +0.000 C 
ATOM   1488  P   C   B  16     -22.029   7.936  48.916  0.00  0.00    +0.000 P 
ATOM   1489  OP2 C   B  16     -21.722   6.722  48.111  0.00  0.00    +0.000 OA
ATOM   1490  O5' C   B  16     -22.765   7.476  50.258  0.00  0.00    +0.000 OA
ATOM   1491  C5' C   B  16     -23.573   6.332  50.279  0.00  0.00    +0.000 C 
ATOM   1492  C4' C   B  16     -24.898   6.581  50.948  0.00  0.00    +0.000 C 
ATOM   1493  O4' C   B  16     -25.439   7.873  50.534  0.00  0.00    +0.000 OA
ATOM   1494  C3' C   B  16     -25.969   5.585  50.579  0.00  0.00    +0.000 C 
ATOM   1495  C2' C   B  16     -27.250   6.379  50.800  0.00  0.00    +0.000 C 
ATOM   1496  C1' C   B  16     -26.830   7.773  50.333  0.00  0.00    +0.000 C 
ATOM   1497  N1  C   B  16     -27.109   8.019  48.901  0.00  0.00    +0.000 N 
ATOM   1498  C2  C   B  16     -28.413   8.277  48.481  0.00  0.00    +0.000 C 
ATOM   1499  O2  C   B  16     -29.331   8.294  49.315  0.00  0.00    +0.000 OA
ATOM   1500  N3  C   B  16     -28.653   8.513  47.166  0.00  0.00    +0.000 NA
ATOM   1501  C4  C   B  16     -27.652   8.491  46.287  0.00  0.00    +0.000 C 
ATOM   1502  N4  C   B  16     -27.929   8.729  45.003  0.00  0.00    +0.000 N 
ATOM   1503  C5  C   B  16     -26.320   8.233  46.686  0.00  0.00    +0.000 C 
ATOM   1504  C6  C   B  16     -26.096   8.007  47.985  0.00  0.00    +0.000 C 
ATOM   1505  H   C   B  16     -27.207   8.719  44.334  0.00  0.00    +0.000 HD
ATOM   1506  H   C   B  16     -28.855   8.915  44.725  0.00  0.00    +0.000 HD
BRANCH14871507
ATOM   1507  N1  U   B  15     -25.151  11.290  44.756  0.00  0.00    +0.000 N 
ATOM   1508  C2  U   B  15     -26.523  11.366  44.630  0.00  0.00    +0.000 A 
ATOM   1509  O2  U   B  15     -27.292  11.082  45.540  0.00  0.00    +0.000 OA
ATOM   1510  N3  U   B  15     -26.980  11.778  43.399  0.00  0.00    +0.000 N 
ATOM   1511  C4  U   B  15     -26.210  12.123  42.307  0.00  0.00    +0.000 A 
ATOM   1512  O4  U   B  15     -26.762  12.477  41.269  0.00  0.00    +0.000 OA
ATOM   1513  C5  U   B  15     -24.799  12.023  42.512  0.00  0.00    +0.000 A 
ATOM   1514  C6  U   B  15     -24.329  11.616  43.701  0.00  0.00    +0.000 A 
ATOM   1515  H   U   B  15     -27.956  11.832  43.286  0.00  0.00    +0.000 HD
ENDBRANCH14871507
BRANCH14951516
ATOM   1516  O2' C   B  16     -27.632   6.433  52.155  0.00  0.00    +0.000 OA
ATOM   1517  H   C   B  16     -26.910   6.813  52.680  0.00  0.00    +0.000 HD
ENDBRANCH14951516
BRANCH14881518
ATOM   1518  OP1 C   B  16     -20.919   8.845  49.313  0.00  0.00    +0.000 OA
ATOM   1519  H   C   B  16     -20.448   9.145  48.520  0.00  0.00    +0.000 HD
ENDBRANCH14881518
BRANCH14811520
ATOM   1520  C5' U   B  15     -21.095  10.991  46.269  0.00  0.00    +0.000 C 
BRANCH15201521
ATOM   1521  O5' U   B  15     -21.127  10.439  44.977  0.00  0.00    +0.000 OA
BRANCH15211522
ATOM   1522  P   U   B  15     -20.460  11.167  43.734  0.00  0.00    +0.000 P 
ATOM   1523  OP1 U   B  15     -20.844  12.595  43.712  0.00  0.00    +0.000 OA
BRANCH15221524
ATOM   1524  OP2 U   B  15     -19.018  10.794  43.723  0.00  0.00    +0.000 OA
ATOM   1525  H   U   B  15     -18.579  11.224  42.973  0.00  0.00    +0.000 HD
ENDBRANCH15221524
BRANCH15221526
ATOM   1526  O3' A   B  14     -21.160  10.444  42.541  0.00  0.00    +0.000 OA
BRANCH15261529
ATOM   1527  C4' A   B  14     -20.972   8.680  40.865  0.00  0.00    +0.000 C 
ATOM   1528  O4' A   B  14     -21.233   7.252  40.880  0.00  0.00    +0.000 OA
ATOM   1529  C3' A   B  14     -20.979   9.055  42.328  0.00  0.00    +0.000 C 
ATOM   1530  C2' A   B  14     -22.112   8.195  42.861  0.00  0.00    +0.000 C 
ATOM   1531  C1' A   B  14     -21.887   6.903  42.084  0.00  0.00    +0.000 C 
BRANCH15311532
ATOM   1532  N9  A   B  14     -21.045   5.963  42.835  0.00  0.00    +0.000 N 
ATOM   1533  C8  A   B  14     -19.716   5.682  42.655  0.00  0.00    +0.000 A 
ATOM   1534  N7  A   B  14     -19.250   4.800  43.507  0.00  0.00    +0.000 NA
ATOM   1535  C5  A   B  14     -20.347   4.484  44.295  0.00  0.00    +0.000 A 
ATOM   1536  C6  A   B  14     -20.513   3.613  45.375  0.00  0.00    +0.000 A 
ATOM   1537  N6  A   B  14     -19.525   2.868  45.881  0.00  0.00    +0.000 N 
ATOM   1538  N1  A   B  14     -21.732   3.528  45.938  0.00  0.00    +0.000 NA
ATOM   1539  C2  A   B  14     -22.717   4.276  45.439  0.00  0.00    +0.000 A 
ATOM   1540  N3  A   B  14     -22.687   5.133  44.424  0.00  0.00    +0.000 NA
ATOM   1541  C4  A   B  14     -21.457   5.191  43.890  0.00  0.00    +0.000 A 
ATOM   1542  H   A   B  14     -18.624   2.912  45.487  0.00  0.00    +0.000 HD
ATOM   1543  H   A   B  14     -19.699   2.275  46.648  0.00  0.00    +0.000 HD
ENDBRANCH15311532
BRANCH15301544
ATOM   1544  O2' A   B  14     -23.377   8.722  42.531  0.00  0.00    +0.000 OA
ATOM   1545  H   A   B  14     -23.442   8.828  41.569  0.00  0.00    +0.000 HD
ENDBRANCH15301544
BRANCH15271546
ATOM   1546  C5' A   B  14     -19.698   8.970  40.116  0.00  0.00    +0.000 C 
BRANCH15461547
ATOM   1547  O5' A   B  14     -18.583   8.391  40.768  0.00  0.00    +0.000 OA
BRANCH15471548
ATOM   1548  P   A   B  14     -17.155   8.393  40.073  0.00  0.00    +0.000 P 
ATOM   1549  OP1 A   B  14     -16.826   9.776  39.672  0.00  0.00    +0.000 OA
BRANCH15481550
ATOM   1550  OP2 A   B  14     -16.227   7.647  40.956  0.00  0.00    +0.000 OA
ATOM   1551  H   A   B  14     -15.343   7.631  40.557  0.00  0.00    +0.000 HD
ENDBRANCH15481550
BRANCH15481552
ATOM   1552  O3' C   B  13     -17.398   7.547  38.748  0.00  0.00    +0.000 OA
BRANCH15521555
ATOM   1553  C4' C   B  13     -17.118   5.363  37.669  0.00  0.00    +0.000 C 
ATOM   1554  O4' C   B  13     -17.822   4.097  37.774  0.00  0.00    +0.000 OA
ATOM   1555  C3' C   B  13     -17.633   6.150  38.852  0.00  0.00    +0.000 C 
ATOM   1556  C2' C   B  13     -19.105   5.774  38.844  0.00  0.00    +0.000 C 
ATOM   1557  C1' C   B  13     -19.026   4.291  38.489  0.00  0.00    +0.000 C 
BRANCH15571558
ATOM   1558  N1  C   B  13     -19.022   3.437  39.697  0.00  0.00    +0.000 N 
ATOM   1559  C2  C   B  13     -20.247   3.171  40.318  0.00  0.00    +0.000 A 
ATOM   1560  O2  C   B  13     -21.285   3.638  39.830  0.00  0.00    +0.000 OA
ATOM   1561  N3  C   B  13     -20.273   2.407  41.434  0.00  0.00    +0.000 NA
ATOM   1562  C4  C   B  13     -19.138   1.921  41.936  0.00  0.00    +0.000 A 
ATOM   1563  N4  C   B  13     -19.214   1.174  43.037  0.00  0.00    +0.000 N 
ATOM   1564  C5  C   B  13     -17.879   2.177  41.326  0.00  0.00    +0.000 A 
ATOM   1565  C6  C   B  13     -17.867   2.933  40.222  0.00  0.00    +0.000 A 
ATOM   1566  H   C   B  13     -18.395   0.799  43.435  0.00  0.00    +0.000 HD
ATOM   1567  H   C   B  13     -20.089   0.997  43.453  0.00  0.00    +0.000 HD
ENDBRANCH15571558
BRANCH15561568
ATOM   1568  O2' C   B  13     -19.821   6.455  37.838  0.00  0.00    +0.000 OA
ATOM   1569  H   C   B  13     -19.413   6.280  36.976  0.00  0.00    +0.000 HD
ENDBRANCH15561568
BRANCH15531570
ATOM   1570  C5' C   B  13     -15.631   5.132  37.613  0.00  0.00    +0.000 C 
BRANCH15701571
ATOM   1571  O5' C   B  13     -15.153   4.556  38.815  0.00  0.00    +0.000 OA
BRANCH15711572
ATOM   1572  P   C   B  13     -13.674   3.987  38.908  0.00  0.00    +0.000 P 
ATOM   1573  OP1 C   B  13     -12.736   5.045  38.458  0.00  0.00    +0.000 OA
BRANCH15721574
ATOM   1574  OP2 C   B  13     -13.507   3.379  40.251  0.00  0.00    +0.000 OA
ATOM   1575  H   C   B  13     -12.609   3.022  40.335  0.00  0.00    +0.000 HD
ENDBRANCH15721574
BRANCH15721576
ATOM   1576  O3' U   B  12     -13.657   2.836  37.805  0.00  0.00    +0.000 OA
BRANCH15761579
ATOM   1577  C4' U   B  12     -13.671   0.420  37.434  0.00  0.00    +0.000 C 
ATOM   1578  O4' U   B  12     -14.720  -0.585  37.403  0.00  0.00    +0.000 OA
ATOM   1579  C3' U   B  12     -14.342   1.619  38.064  0.00  0.00    +0.000 C 
ATOM   1580  C2' U   B  12     -15.731   1.558  37.447  0.00  0.00    +0.000 C 
ATOM   1581  C1' U   B  12     -15.984   0.050  37.440  0.00  0.00    +0.000 C 
BRANCH15811582
ATOM   1582  N1  U   B  12     -16.712  -0.404  38.643  0.00  0.00    +0.000 N 
ATOM   1583  C2  U   B  12     -18.086  -0.258  38.641  0.00  0.00    +0.000 A 
ATOM   1584  O2  U   B  12     -18.703   0.219  37.704  0.00  0.00    +0.000 OA
ATOM   1585  N3  U   B  12     -18.722  -0.692  39.779  0.00  0.00    +0.000 N 
ATOM   1586  C4  U   B  12     -18.131  -1.243  40.894  0.00  0.00    +0.000 A 
ATOM   1587  O4  U   B  12     -18.836  -1.583  41.841  0.00  0.00    +0.000 OA
ATOM   1588  C5  U   B  12     -16.712  -1.359  40.821  0.00  0.00    +0.000 A 
ATOM   1589  C6  U   B  12     -16.067  -0.946  39.723  0.00  0.00    +0.000 A 
ATOM   1590  H   U   B  12     -19.702  -0.599  39.799  0.00  0.00    +0.000 HD
ENDBRANCH15811582
BRANCH15801591
ATOM   1591  O2' U   B  12     -15.743   2.035  36.118  0.00  0.00    +0.000 OA
ATOM   1592  H   U   B  12     -15.105   1.532  35.588  0.00  0.00    +0.000 HD
ENDBRANCH15801591
BRANCH15771593
ATOM   1593  C5' U   B  12     -12.468  -0.118  38.162  0.00  0.00    +0.000 C 
BRANCH15931594
ATOM   1594  O5' U   B  12     -12.749  -0.332  39.535  0.00  0.00    +0.000 OA
BRANCH15941595
ATOM   1595  P   U   B  12     -11.727  -1.115  40.466  0.00  0.00    +0.000 P 
ATOM   1596  OP1 U   B  12     -10.400  -0.468  40.345  0.00  0.00    +0.000 OA
BRANCH15951597
ATOM   1597  OP2 U   B  12     -12.354  -1.266  41.805  0.00  0.00    +0.000 OA
ATOM   1598  H   U   B  12     -13.214  -1.706  41.712  0.00  0.00    +0.000 HD
ENDBRANCH15951597
BRANCH15951599
ATOM   1599  O3' U   B  11     -11.633  -2.539  39.755  0.00  0.00    +0.000 OA
BRANCH15991602
ATOM   1600  C4' U   B  11     -12.180  -4.911  39.940  0.00  0.00    +0.000 C 
ATOM   1601  O4' U   B  11     -13.379  -5.692  39.680  0.00  0.00    +0.000 OA
ATOM   1602  C3' U   B  11     -12.679  -3.484  39.951  0.00  0.00    +0.000 C 
ATOM   1603  C2' U   B  11     -13.707  -3.500  38.830  0.00  0.00    +0.000 C 
ATOM   1604  C1' U   B  11     -14.338  -4.882  39.025  0.00  0.00    +0.000 C 
BRANCH16041605
ATOM   1605  N1  U   B  11     -15.565  -4.834  39.846  0.00  0.00    +0.000 N 
ATOM   1606  C2  U   B  11     -16.735  -4.459  39.207  0.00  0.00    +0.000 A 
ATOM   1607  O2  U   B  11     -16.784  -4.175  38.026  0.00  0.00    +0.000 OA
ATOM   1608  N3  U   B  11     -17.851  -4.428  40.007  0.00  0.00    +0.000 N 
ATOM   1609  C4  U   B  11     -17.916  -4.726  41.349  0.00  0.00    +0.000 A 
ATOM   1610  O4  U   B  11     -18.995  -4.650  41.929  0.00  0.00    +0.000 OA
ATOM   1611  C5  U   B  11     -16.666  -5.103  41.934  0.00  0.00    +0.000 A 
ATOM   1612  C6  U   B  11     -15.562  -5.143  41.180  0.00  0.00    +0.000 A 
ATOM   1613  H   U   B  11     -18.695  -4.164  39.574  0.00  0.00    +0.000 HD
ENDBRANCH16041605
BRANCH16031614
ATOM   1614  O2' U   B  11     -13.096  -3.448  37.556  0.00  0.00    +0.000 OA
ATOM   1615  H   U   B  11     -12.469  -4.183  37.468  0.00  0.00    +0.000 HD
ENDBRANCH16031614
BRANCH16001616
ATOM   1616  C5' U   B  11     -11.520  -5.388  41.206  0.00  0.00    +0.000 C 
BRANCH16161617
ATOM   1617  O5' U   B  11     -12.334  -5.135  42.339  0.00  0.00    +0.000 OA
BRANCH16171618
ATOM   1618  P   U   B  11     -11.977  -5.755  43.756  0.00  0.00    +0.000 P 
ATOM   1619  OP1 U   B  11     -10.590  -5.360  44.095  0.00  0.00    +0.000 OA
BRANCH16181620
ATOM   1620  OP2 U   B  11     -13.089  -5.432  44.690  0.00  0.00    +0.000 OA
ATOM   1621  H   U   B  11     -13.925  -5.757  44.322  0.00  0.00    +0.000 HD
ENDBRANCH16181620
BRANCH16181622
ATOM   1622  O3' U   B  10     -11.978  -7.313  43.449  0.00  0.00    +0.000 OA
BRANCH16221625
ATOM   1623  C4' U   B  10     -13.142  -9.423  43.841  0.00  0.00    +0.000 C 
ATOM   1624  O4' U   B  10     -14.294 -10.068  43.229  0.00  0.00    +0.000 OA
ATOM   1625  C3' U   B  10     -13.217  -8.004  43.332  0.00  0.00    +0.000 C 
ATOM   1626  C2' U   B  10     -13.678  -8.205  41.898  0.00  0.00    +0.000 C 
ATOM   1627  C1' U   B  10     -14.672  -9.357  42.066  0.00  0.00    +0.000 C 
BRANCH16271628
ATOM   1628  N1  U   B  10     -16.061  -8.880  42.223  0.00  0.00    +0.000 N 
ATOM   1629  C2  U   B  10     -16.749  -8.549  41.067  0.00  0.00    +0.000 A 
ATOM   1630  O2  U   B  10     -16.258  -8.637  39.956  0.00  0.00    +0.000 OA
ATOM   1631  N3  U   B  10     -18.033  -8.106  41.257  0.00  0.00    +0.000 N 
ATOM   1632  C4  U   B  10     -18.689  -7.966  42.460  0.00  0.00    +0.000 A 
ATOM   1633  O4  U   B  10     -19.848  -7.553  42.467  0.00  0.00    +0.000 OA
ATOM   1634  C5  U   B  10     -17.915  -8.327  43.607  0.00  0.00    +0.000 A 
ATOM   1635  C6  U   B  10     -16.659  -8.762  43.452  0.00  0.00    +0.000 A 
ATOM   1636  H   U   B  10     -18.539  -7.862  40.448  0.00  0.00    +0.000 HD
ENDBRANCH16271628
BRANCH16261637
ATOM   1637  O2' U   B  10     -12.621  -8.628  41.061  0.00  0.00    +0.000 OA
ATOM   1638  H   U   B  10     -12.228  -9.439  41.421  0.00  0.00    +0.000 HD
ENDBRANCH16261637
BRANCH16231639
ATOM   1639  C5' U   B  10     -13.194  -9.592  45.337  0.00  0.00    +0.000 C 
BRANCH16391640
ATOM   1640  O5' U   B  10     -14.266  -8.853  45.898  0.00  0.00    +0.000 OA
BRANCH16401641
ATOM   1641  P   U   B  10     -14.753  -9.121  47.387  0.00  0.00    +0.000 P 
ATOM   1642  OP2 U   B  10     -16.020  -8.375  47.598  0.00  0.00    +0.000 OA
BRANCH16411643
ATOM   1643  OP1 U   B  10     -13.600  -8.895  48.295  0.00  0.00    +0.000 OA
ATOM   1644  H   U   B  10     -12.858  -9.456  48.021  0.00  0.00    +0.000 HD
ENDBRANCH16411643
BRANCH16411645
ATOM   1645  O3' A   B   9     -15.057 -10.670  47.363  0.00  0.00    +0.000 OA
BRANCH16451648
ATOM   1646  C4' A   B   9     -16.883 -12.264  47.637  0.00  0.00    +0.000 C 
ATOM   1647  O4' A   B   9     -17.795 -12.924  46.718  0.00  0.00    +0.000 OA
ATOM   1648  C3' A   B   9     -16.285 -11.146  46.811  0.00  0.00    +0.000 C 
ATOM   1649  C2' A   B   9     -16.140 -11.796  45.446  0.00  0.00    +0.000 C 
ATOM   1650  C1' A   B   9     -17.408 -12.647  45.389  0.00  0.00    +0.000 C 
BRANCH16501651
ATOM   1651  N9  A   B   9     -18.520 -11.956  44.716  0.00  0.00    +0.000 N 
ATOM   1652  C8  A   B   9     -19.605 -11.349  45.286  0.00  0.00    +0.000 A 
ATOM   1653  N7  A   B   9     -20.434 -10.822  44.415  0.00  0.00    +0.000 NA
ATOM   1654  C5  A   B   9     -19.853 -11.104  43.187  0.00  0.00    +0.000 A 
ATOM   1655  C6  A   B   9     -20.237 -10.818  41.867  0.00  0.00    +0.000 A 
ATOM   1656  N1  A   B   9     -19.434 -11.239  40.875  0.00  0.00    +0.000 NA
ATOM   1657  C2  A   B   9     -18.318 -11.908  41.190  0.00  0.00    +0.000 A 
ATOM   1658  N3  A   B   9     -17.852 -12.240  42.392  0.00  0.00    +0.000 NA
ATOM   1659  C4  A   B   9     -18.675 -11.804  43.358  0.00  0.00    +0.000 A 
BRANCH16551660
ATOM   1660  N6  A   B   9     -21.349 -10.152  41.551  0.00  0.00    +0.000 N 
ATOM   1661  H   A   B   9     -21.568  -9.980  40.607  0.00  0.00    +0.000 HD
ATOM   1662  H   A   B   9     -21.950  -9.833  42.262  0.00  0.00    +0.000 HD
ENDBRANCH16551660
ENDBRANCH16501651
BRANCH16491663
ATOM   1663  O2' A   B   9     -15.011 -12.646  45.389  0.00  0.00    +0.000 OA
ATOM   1664  H   A   B   9     -15.071 -13.311  46.093  0.00  0.00    +0.000 HD
ENDBRANCH16491663
BRANCH16461665
ATOM   1665  C5' A   B   9     -17.623 -11.833  48.876  0.00  0.00    +0.000 C 
BRANCH16651666
ATOM   1666  O5' A   B   9     -18.474 -10.726  48.593  0.00  0.00    +0.000 OA
BRANCH16661667
ATOM   1667  P   A   B   9     -19.465 -10.159  49.698  0.00  0.00    +0.000 P 
ATOM   1668  OP2 A   B   9     -20.342  -9.148  49.053  0.00  0.00    +0.000 OA
BRANCH16671669
ATOM   1669  OP1 A   B   9     -18.663  -9.791  50.887  0.00  0.00    +0.000 OA
ATOM   1670  H   A   B   9     -18.128  -9.007  50.686  0.00  0.00    +0.000 HD
ENDBRANCH16671669
BRANCH16671671
ATOM   1671  O3' U   B   8     -20.314 -11.422  50.052  0.00  0.00    +0.000 OA
BRANCH16711674
ATOM   1672  C4' U   B   8     -22.546 -12.398  49.972  0.00  0.00    +0.000 C 
ATOM   1673  O4' U   B   8     -23.291 -13.128  48.959  0.00  0.00    +0.000 OA
ATOM   1674  C3' U   B   8     -21.391 -11.807  49.204  0.00  0.00    +0.000 C 
ATOM   1675  C2' U   B   8     -21.044 -12.928  48.235  0.00  0.00    +0.000 C 
ATOM   1676  C1' U   B   8     -22.436 -13.449  47.880  0.00  0.00    +0.000 C 
BRANCH16761677
ATOM   1677  N1  U   B   8     -22.970 -12.837  46.644  0.00  0.00    +0.000 N 
ATOM   1678  C2  U   B   8     -22.524 -13.350  45.435  0.00  0.00    +0.000 A 
ATOM   1679  O2  U   B   8     -21.727 -14.267  45.358  0.00  0.00    +0.000 OA
ATOM   1680  N3  U   B   8     -23.048 -12.746  44.317  0.00  0.00    +0.000 N 
ATOM   1681  C4  U   B   8     -23.950 -11.705  44.281  0.00  0.00    +0.000 A 
ATOM   1682  O4  U   B   8     -24.324 -11.271  43.195  0.00  0.00    +0.000 OA
ATOM   1683  C5  U   B   8     -24.360 -11.235  45.566  0.00  0.00    +0.000 A 
ATOM   1684  C6  U   B   8     -23.868 -11.805  46.676  0.00  0.00    +0.000 A 
ATOM   1685  H   U   B   8     -22.746 -13.095  43.447  0.00  0.00    +0.000 HD
ENDBRANCH16761677
BRANCH16751686
ATOM   1686  O2' U   B   8     -20.315 -13.960  48.865  0.00  0.00    +0.000 OA
ATOM   1687  H   U   B   8     -20.818 -14.294  49.624  0.00  0.00    +0.000 HD
ENDBRANCH16751686
BRANCH16721688
ATOM   1688  C5' U   B   8     -23.445 -11.410  50.666  0.00  0.00    +0.000 C 
BRANCH16881689
ATOM   1689  O5' U   B   8     -23.860 -10.382  49.773  0.00  0.00    +0.000 OA
BRANCH16891690
ATOM   1690  P   U   B   8     -24.971  -9.330  50.197  0.00  0.00    +0.000 P 
ATOM   1691  OP2 U   B   8     -25.319  -8.519  49.002  0.00  0.00    +0.000 OA
BRANCH16901692
ATOM   1692  OP1 U   B   8     -24.528  -8.662  51.440  0.00  0.00    +0.000 OA
ATOM   1693  H   U   B   8     -23.775  -8.083  51.245  0.00  0.00    +0.000 HD
ENDBRANCH16901692
BRANCH16901694
ATOM   1694  O3' C   B   7     -26.172 -10.245  50.546  0.00  0.00    +0.000 OA
BRANCH16941697
ATOM   1695  C4' C   B   7     -28.391 -11.063  49.959  0.00  0.00    +0.000 C 
ATOM   1696  O4' C   B   7     -28.881 -12.037  48.997  0.00  0.00    +0.000 OA
ATOM   1697  C3' C   B   7     -26.970 -10.811  49.515  0.00  0.00    +0.000 C 
ATOM   1698  C2' C   B   7     -26.519 -12.200  49.089  0.00  0.00    +0.000 C 
ATOM   1699  C1' C   B   7     -27.788 -12.727  48.423  0.00  0.00    +0.000 C 
BRANCH16991700
ATOM   1700  N1  C   B   7     -27.790 -12.513  46.957  0.00  0.00    +0.000 N 
ATOM   1701  C2  C   B   7     -27.044 -13.380  46.151  0.00  0.00    +0.000 A 
ATOM   1702  O2  C   B   7     -26.409 -14.301  46.685  0.00  0.00    +0.000 OA
ATOM   1703  N3  C   B   7     -27.032 -13.197  44.810  0.00  0.00    +0.000 NA
ATOM   1704  C4  C   B   7     -27.726 -12.199  44.267  0.00  0.00    +0.000 A 
ATOM   1705  N4  C   B   7     -27.682 -12.059  42.943  0.00  0.00    +0.000 N 
ATOM   1706  C5  C   B   7     -28.492 -11.305  45.060  0.00  0.00    +0.000 A 
ATOM   1707  C6  C   B   7     -28.498 -11.496  46.386  0.00  0.00    +0.000 A 
ATOM   1708  H   C   B   7     -27.149 -12.683  42.399  0.00  0.00    +0.000 HD
ATOM   1709  H   C   B   7     -28.183 -11.332  42.508  0.00  0.00    +0.000 HD
ENDBRANCH16991700
BRANCH16981710
ATOM   1710  O2' C   B   7     -26.207 -13.017  50.195  0.00  0.00    +0.000 OA
ATOM   1711  H   C   B   7     -26.973 -13.065  50.788  0.00  0.00    +0.000 HD
ENDBRANCH16981710
BRANCH16951712
ATOM   1712  C5' C   B   7     -29.302  -9.863  49.990  0.00  0.00    +0.000 C 
BRANCH17121713
ATOM   1713  O5' C   B   7     -29.385  -9.248  48.707  0.00  0.00    +0.000 OA
BRANCH17131714
ATOM   1714  P   C   B   7     -30.524  -8.196  48.382  0.00  0.00    +0.000 P 
ATOM   1715  OP2 C   B   7     -30.436  -7.855  46.941  0.00  0.00    +0.000 OA
BRANCH17141716
ATOM   1716  OP1 C   B   7     -30.467  -7.117  49.398  0.00  0.00    +0.000 OA
ATOM   1717  H   C   B   7     -31.159  -6.463  49.214  0.00  0.00    +0.000 HD
ENDBRANCH17141716
BRANCH17141718
ATOM   1718  O3' A   B   6     -31.836  -8.997  48.629  0.00  0.00    +0.000 OA
BRANCH17181721
ATOM   1719  C4' A   B   6     -33.795 -10.132  47.722  0.00  0.00    +0.000 C 
ATOM   1720  O4' A   B   6     -33.996 -11.405  47.062  0.00  0.00    +0.000 OA
ATOM   1721  C3' A   B   6     -32.296  -9.946  47.677  0.00  0.00    +0.000 C 
ATOM   1722  C2' A   B   6     -31.800 -11.356  47.940  0.00  0.00    +0.000 C 
ATOM   1723  C1' A   B   6     -32.813 -12.174  47.149  0.00  0.00    +0.000 C 
BRANCH17231724
ATOM   1724  N9  A   B   6     -32.330 -12.480  45.797  0.00  0.00    +0.000 N 
ATOM   1725  C8  A   B   6     -32.680 -11.892  44.611  0.00  0.00    +0.000 A 
ATOM   1726  N7  A   B   6     -32.059 -12.393  43.570  0.00  0.00    +0.000 NA
ATOM   1727  C5  A   B   6     -31.246 -13.380  44.110  0.00  0.00    +0.000 A 
ATOM   1728  C6  A   B   6     -30.337 -14.279  43.533  0.00  0.00    +0.000 A 
ATOM   1729  N1  A   B   6     -29.688 -15.128  44.348  0.00  0.00    +0.000 NA
ATOM   1730  C2  A   B   6     -29.943 -15.075  45.658  0.00  0.00    +0.000 A 
ATOM   1731  N3  A   B   6     -30.777 -14.278  46.319  0.00  0.00    +0.000 NA
ATOM   1732  C4  A   B   6     -31.404 -13.444  45.476  0.00  0.00    +0.000 A 
BRANCH17281733
ATOM   1733  N6  A   B   6     -30.078 -14.332  42.223  0.00  0.00    +0.000 N 
ATOM   1734  H   A   B   6     -30.540 -13.721  41.605  0.00  0.00    +0.000 HD
ATOM   1735  H   A   B   6     -29.425 -14.982  41.876  0.00  0.00    +0.000 HD
ENDBRANCH17281733
ENDBRANCH17231724
BRANCH17221736
ATOM   1736  O2' A   B   6     -31.895 -11.704  49.307  0.00  0.00    +0.000 OA
ATOM   1737  H   A   B   6     -32.811 -11.594  49.606  0.00  0.00    +0.000 HD
ENDBRANCH17221736
BRANCH17191738
ATOM   1738  C5' A   B   6     -34.624  -9.068  47.055  0.00  0.00    +0.000 C 
BRANCH17381739
ATOM   1739  O5' A   B   6     -34.350  -8.998  45.661  0.00  0.00    +0.000 OA
BRANCH17391740
ATOM   1740  P   A   B   6     -35.347  -8.243  44.683  0.00  0.00    +0.000 P 
ATOM   1741  OP2 A   B   6     -34.821  -8.375  43.307  0.00  0.00    +0.000 OA
BRANCH17401742
ATOM   1742  OP1 A   B   6     -35.622  -6.902  45.250  0.00  0.00    +0.000 OA
ATOM   1743  H   A   B   6     -36.231  -6.423  44.666  0.00  0.00    +0.000 HD
ENDBRANCH17401742
BRANCH17401744
ATOM   1744  O3' U   B   5     -36.655  -9.070  44.800  0.00  0.00    +0.000 OA
BRANCH17441747
ATOM   1745  C4' U   B   5     -38.149 -10.737  43.819  0.00  0.00    +0.000 C 
ATOM   1746  O4' U   B   5     -38.089 -12.178  43.679  0.00  0.00    +0.000 OA
ATOM   1747  C3' U   B   5     -36.741 -10.358  44.202  0.00  0.00    +0.000 C 
ATOM   1748  C2' U   B   5     -36.363 -11.490  45.146  0.00  0.00    +0.000 C 
ATOM   1749  C1' U   B   5     -37.014 -12.683  44.448  0.00  0.00    +0.000 C 
BRANCH17491750
ATOM   1750  N1  U   B   5     -36.067 -13.393  43.563  0.00  0.00    +0.000 N 
ATOM   1751  C2  U   B   5     -35.195 -14.287  44.161  0.00  0.00    +0.000 A 
ATOM   1752  O2  U   B   5     -35.188 -14.502  45.362  0.00  0.00    +0.000 OA
ATOM   1753  N3  U   B   5     -34.329 -14.918  43.305  0.00  0.00    +0.000 N 
ATOM   1754  C4  U   B   5     -34.244 -14.756  41.941  0.00  0.00    +0.000 A 
ATOM   1755  O4  U   B   5     -33.410 -15.395  41.309  0.00  0.00    +0.000 OA
ATOM   1756  C5  U   B   5     -35.177 -13.818  41.400  0.00  0.00    +0.000 A 
ATOM   1757  C6  U   B   5     -36.036 -13.187  42.212  0.00  0.00    +0.000 A 
ATOM   1758  H   U   B   5     -33.699 -15.557  43.711  0.00  0.00    +0.000 HD
ENDBRANCH17491750
BRANCH17481759
ATOM   1759  O2' U   B   5     -36.944 -11.329  46.420  0.00  0.00    +0.000 OA
ATOM   1760  H   U   B   5     -37.907 -11.255  46.329  0.00  0.00    +0.000 HD
ENDBRANCH17481759
BRANCH17451761
ATOM   1761  C5' U   B   5     -38.685 -10.114  42.556  0.00  0.00    +0.000 C 
BRANCH17611762
ATOM   1762  O5' U   B   5     -37.871 -10.439  41.431  0.00  0.00    +0.000 OA
BRANCH17621763
ATOM   1763  P   U   B   5     -38.379 -10.163  39.954  0.00  0.00    +0.000 P 
ATOM   1764  OP2 U   B   5     -37.336 -10.640  39.013  0.00  0.00    +0.000 OA
BRANCH17631765
ATOM   1765  OP1 U   B   5     -38.855  -8.759  39.883  0.00  0.00    +0.000 OA
ATOM   1766  H   U   B   5     -39.171  -8.570  38.986  0.00  0.00    +0.000 HD
ENDBRANCH17631765
BRANCH17631767
ATOM   1767  O3' A   B   4     -39.627 -11.059  39.798  0.00  0.00    +0.000 OA
BRANCH17671770
ATOM   1768  C4' A   B   4     -40.597 -13.109  38.883  0.00  0.00    +0.000 C 
ATOM   1769  O4' A   B   4     -40.531 -14.503  39.276  0.00  0.00    +0.000 OA
ATOM   1770  C3' A   B   4     -39.481 -12.465  39.679  0.00  0.00    +0.000 C 
ATOM   1771  C2' A   B   4     -39.586 -13.192  41.009  0.00  0.00    +0.000 C 
ATOM   1772  C1' A   B   4     -39.921 -14.607  40.549  0.00  0.00    +0.000 C 
BRANCH17721773
ATOM   1773  N9  A   B   4     -38.728 -15.454  40.447  0.00  0.00    +0.000 N 
ATOM   1774  C8  A   B   4     -38.023 -15.797  39.324  0.00  0.00    +0.000 A 
ATOM   1775  N7  A   B   4     -36.994 -16.574  39.560  0.00  0.00    +0.000 NA
ATOM   1776  C5  A   B   4     -37.024 -16.754  40.935  0.00  0.00    +0.000 A 
ATOM   1777  C6  A   B   4     -36.204 -17.475  41.810  0.00  0.00    +0.000 A 
ATOM   1778  N6  A   B   4     -35.139 -18.181  41.416  0.00  0.00    +0.000 N 
ATOM   1779  N1  A   B   4     -36.505 -17.451  43.119  0.00  0.00    +0.000 NA
ATOM   1780  C2  A   B   4     -37.568 -16.744  43.517  0.00  0.00    +0.000 A 
ATOM   1781  N3  A   B   4     -38.418 -16.027  42.793  0.00  0.00    +0.000 NA
ATOM   1782  C4  A   B   4     -38.087 -16.074  41.492  0.00  0.00    +0.000 A 
ATOM   1783  H   A   B   4     -34.896 -18.215  40.462  0.00  0.00    +0.000 HD
ATOM   1784  H   A   B   4     -34.597 -18.667  42.079  0.00  0.00    +0.000 HD
ENDBRANCH17721773
BRANCH17711785
ATOM   1785  O2' A   B   4     -40.647 -12.694  41.790  0.00  0.00    +0.000 OA
ATOM   1786  H   A   B   4     -41.474 -12.754  41.287  0.00  0.00    +0.000 HD
ENDBRANCH17711785
BRANCH17681787
ATOM   1787  C5' A   B   4     -40.517 -12.990  37.379  0.00  0.00    +0.000 C 
BRANCH17871788
ATOM   1788  O5' A   B   4     -39.319 -13.574  36.879  0.00  0.00    +0.000 OA
BRANCH17881789
ATOM   1789  P   A   B   4     -39.356 -14.543  35.622  0.00  0.00    +0.000 P 
ATOM   1790  OP1 A   B   4     -40.466 -14.133  34.728  0.00  0.00    +0.000 OA
BRANCH17891791
ATOM   1791  OP2 A   B   4     -37.979 -14.622  35.084  0.00  0.00    +0.000 OA
ATOM   1792  H   A   B   4     -37.967 -15.209  34.312  0.00  0.00    +0.000 HD
ENDBRANCH17891791
BRANCH17891793
ATOM   1793  O3' A   B   3     -39.683 -15.899  36.268  0.00  0.00    +0.000 OA
BRANCH17931796
ATOM   1794  C4' A   B   3     -42.057 -15.941  36.739  0.00  0.00    +0.000 C 
ATOM   1795  O4' A   B   3     -42.193 -16.655  38.002  0.00  0.00    +0.000 OA
ATOM   1796  C3' A   B   3     -40.898 -16.606  36.003  0.00  0.00    +0.000 C 
ATOM   1797  C2' A   B   3     -40.810 -17.963  36.675  0.00  0.00    +0.000 C 
ATOM   1798  C1' A   B   3     -41.147 -17.594  38.103  0.00  0.00    +0.000 C 
BRANCH17981799
ATOM   1799  N9  A   B   3     -41.583 -18.708  38.941  0.00  0.00    +0.000 N 
ATOM   1800  C8  A   B   3     -42.660 -19.537  38.785  0.00  0.00    +0.000 A 
ATOM   1801  N7  A   B   3     -42.768 -20.438  39.727  0.00  0.00    +0.000 NA
ATOM   1802  C5  A   B   3     -41.689 -20.184  40.559  0.00  0.00    +0.000 A 
ATOM   1803  C6  A   B   3     -41.237 -20.786  41.743  0.00  0.00    +0.000 A 
ATOM   1804  N6  A   B   3     -41.846 -21.820  42.329  0.00  0.00    +0.000 N 
ATOM   1805  N1  A   B   3     -40.130 -20.292  42.320  0.00  0.00    +0.000 NA
ATOM   1806  C2  A   B   3     -39.516 -19.254  41.748  0.00  0.00    +0.000 A 
ATOM   1807  N3  A   B   3     -39.843 -18.599  40.636  0.00  0.00    +0.000 NA
ATOM   1808  C4  A   B   3     -40.951 -19.122  40.086  0.00  0.00    +0.000 A 
ATOM   1809  H   A   B   3     -42.660 -22.203  41.929  0.00  0.00    +0.000 HD
ATOM   1810  H   A   B   3     -41.481 -22.199  43.161  0.00  0.00    +0.000 HD
ENDBRANCH17981799
BRANCH17971811
ATOM   1811  O2' A   B   3     -39.536 -18.591  36.583  0.00  0.00    +0.000 OA
ATOM   1812  H   A   B   3     -38.862 -18.013  36.972  0.00  0.00    +0.000 HD
ENDBRANCH17971811
BRANCH17941813
ATOM   1813  C5' A   B   3     -43.385 -15.955  36.007  0.00  0.00    +0.000 C 
BRANCH18131814
ATOM   1814  O5' A   B   3     -43.747 -17.278  35.634  0.00  0.00    +0.000 OA
BRANCH18141815
ATOM   1815  P   A   B   3     -45.119 -17.547  34.864  0.00  0.00    +0.000 P 
ATOM   1816  OP1 A   B   3     -45.178 -16.633  33.694  0.00  0.00    +0.000 OA
BRANCH18151817
ATOM   1817  OP2 A   B   3     -45.242 -19.005  34.645  0.00  0.00    +0.000 OA
ATOM   1818  H   A   B   3     -44.576 -19.293  34.002  0.00  0.00    +0.000 HD
ENDBRANCH18151817
BRANCH18151819
ATOM   1819  O3' U   B   2     -46.201 -17.020  35.922  0.00  0.00    +0.000 OA
BRANCH18191822
ATOM   1820  C4' U   B   2     -48.185 -17.338  37.296  0.00  0.00    +0.000 C 
ATOM   1821  O4' U   B   2     -47.883 -17.169  38.714  0.00  0.00    +0.000 OA
ATOM   1822  C3' U   B   2     -46.943 -17.963  36.658  0.00  0.00    +0.000 C 
ATOM   1823  C2' U   B   2     -46.151 -18.472  37.855  0.00  0.00    +0.000 C 
ATOM   1824  C1' U   B   2     -46.535 -17.509  38.955  0.00  0.00    +0.000 C 
BRANCH18241825
ATOM   1825  N1  U   B   2     -46.395 -18.143  40.275  0.00  0.00    +0.000 N 
ATOM   1826  C2  U   B   2     -45.164 -18.071  40.893  0.00  0.00    +0.000 A 
ATOM   1827  O2  U   B   2     -44.214 -17.493  40.411  0.00  0.00    +0.000 OA
ATOM   1828  N3  U   B   2     -45.074 -18.715  42.109  0.00  0.00    +0.000 N 
ATOM   1829  C4  U   B   2     -46.078 -19.401  42.746  0.00  0.00    +0.000 A 
ATOM   1830  O4  U   B   2     -45.844 -19.930  43.827  0.00  0.00    +0.000 OA
ATOM   1831  C5  U   B   2     -47.322 -19.424  42.043  0.00  0.00    +0.000 A 
ATOM   1832  C6  U   B   2     -47.435 -18.815  40.859  0.00  0.00    +0.000 A 
ATOM   1833  H   U   B   2     -44.203 -18.679  42.566  0.00  0.00    +0.000 HD
ENDBRANCH18241825
BRANCH18231834
ATOM   1834  O2' U   B   2     -44.730 -18.461  37.668  0.00  0.00    +0.000 OA
ATOM   1835  H   U   B   2     -44.435 -17.556  37.481  0.00  0.00    +0.000 HD
ENDBRANCH18231834
BRANCH18201836
ATOM   1836  C5' U   B   2     -49.457 -18.147  37.147  0.00  0.00    +0.000 C 
BRANCH18361837
ATOM   1837  O5' U   B   2     -49.254 -19.501  37.499  0.00  0.00    +0.000 OA
BRANCH18371838
ATOM   1838  P   U   B   2     -50.066 -20.672  36.789  0.00  0.00    +0.000 P 
ATOM   1839  OP2 U   B   2     -49.414 -20.971  35.499  0.00  0.00    +0.000 OA
BRANCH18381840
ATOM   1840  OP1 U   B   2     -51.508 -20.345  36.826  0.00  0.00    +0.000 OA
ATOM   1841  H   U   B   2     -51.695 -19.637  36.190  0.00  0.00    +0.000 HD
ENDBRANCH18381840
BRANCH18381842
ATOM   1842  O3' C   B   1     -49.875 -21.783  37.813  0.00  0.00    +0.000 OA
BRANCH18421845
ATOM   1843  C4' C   B   1     -49.378 -24.120  37.949  0.00  0.00    +0.000 C 
ATOM   1844  O4' C   B   1     -48.820 -24.382  39.272  0.00  0.00    +0.000 OA
ATOM   1845  C3' C   B   1     -48.879 -22.743  37.535  0.00  0.00    +0.000 C 
ATOM   1846  C2' C   B   1     -47.653 -22.534  38.399  0.00  0.00    +0.000 C 
ATOM   1847  C1' C   B   1     -48.016 -23.302  39.667  0.00  0.00    +0.000 C 
BRANCH18471848
ATOM   1848  N1  C   B   1     -46.835 -23.844  40.367  0.00  0.00    +0.000 N 
ATOM   1849  C2  C   B   1     -46.160 -23.032  41.271  0.00  0.00    +0.000 A 
ATOM   1850  O2  C   B   1     -46.568 -21.879  41.468  0.00  0.00    +0.000 OA
ATOM   1851  N3  C   B   1     -45.067 -23.515  41.911  0.00  0.00    +0.000 NA
ATOM   1852  C4  C   B   1     -44.656 -24.757  41.672  0.00  0.00    +0.000 A 
ATOM   1853  N4  C   B   1     -43.581 -25.194  42.321  0.00  0.00    +0.000 N 
ATOM   1854  C5  C   B   1     -45.326 -25.610  40.755  0.00  0.00    +0.000 A 
ATOM   1855  C6  C   B   1     -46.401 -25.117  40.130  0.00  0.00    +0.000 A 
ATOM   1856  H   C   B   1     -43.251 -26.109  42.167  0.00  0.00    +0.000 HD
ATOM   1857  H   C   B   1     -43.115 -24.603  42.956  0.00  0.00    +0.000 HD
ENDBRANCH18471848
BRANCH18461858
ATOM   1858  O2' C   B   1     -47.381 -21.183  38.682  0.00  0.00    +0.000 OA
ATOM   1859  H   C   B   1     -48.145 -20.786  39.128  0.00  0.00    +0.000 HD
ENDBRANCH18461858
BRANCH18431860
ATOM   1860  C5' C   B   1     -48.973 -25.230  37.011  0.00  0.00    +0.000 C 
BRANCH18601861
ATOM   1861  O5' C   B   1     -47.557 -25.282  36.870  0.00  0.00    +0.000 OA
BRANCH18611862
ATOM   1862  P   C   B   1     -46.844 -26.336  35.945  0.00  0.00    +0.000 P 
ATOM   1863  OP1 C   B   1     -46.585 -25.696  34.678  0.00  0.00    +0.000 OA
BRANCH18621864
ATOM   1864  OP3 C   B   1     -47.669 -27.397  35.957  0.00  0.00    +0.000 OA
ATOM   1865  H   C   B   1     -47.298 -28.102  35.403  0.00  0.00    +0.000 HD
ENDBRANCH18621864
BRANCH18621866
ATOM   1866  OP2 C   B   1     -45.594 -26.671  36.619  0.00  0.00    +0.000 OA
ATOM   1867  H   C   B   1     -45.107 -27.323  36.091  0.00  0.00    +0.000 HD
ENDBRANCH18621866
ENDBRANCH18611862
ENDBRANCH18601861
ENDBRANCH18431860
ENDBRANCH18421845
ENDBRANCH18381842
ENDBRANCH18371838
ENDBRANCH18361837
ENDBRANCH18201836
ENDBRANCH18191822
ENDBRANCH18151819
ENDBRANCH18141815
ENDBRANCH18131814
ENDBRANCH17941813
ENDBRANCH17931796
ENDBRANCH17891793
ENDBRANCH17881789
ENDBRANCH17871788
ENDBRANCH17681787
ENDBRANCH17671770
ENDBRANCH17631767
ENDBRANCH17621763
ENDBRANCH17611762
ENDBRANCH17451761
ENDBRANCH17441747
ENDBRANCH17401744
ENDBRANCH17391740
ENDBRANCH17381739
ENDBRANCH17191738
ENDBRANCH17181721
ENDBRANCH17141718
ENDBRANCH17131714
ENDBRANCH17121713
ENDBRANCH16951712
ENDBRANCH16941697
ENDBRANCH16901694
ENDBRANCH16891690
ENDBRANCH16881689
ENDBRANCH16721688
ENDBRANCH16711674
ENDBRANCH16671671
ENDBRANCH16661667
ENDBRANCH16651666
ENDBRANCH16461665
ENDBRANCH16451648
ENDBRANCH16411645
ENDBRANCH16401641
ENDBRANCH16391640
ENDBRANCH16231639
ENDBRANCH16221625
ENDBRANCH16181622
ENDBRANCH16171618
ENDBRANCH16161617
ENDBRANCH16001616
ENDBRANCH15991602
ENDBRANCH15951599
ENDBRANCH15941595
ENDBRANCH15931594
ENDBRANCH15771593
ENDBRANCH15761579
ENDBRANCH15721576
ENDBRANCH15711572
ENDBRANCH15701571
ENDBRANCH15531570
ENDBRANCH15521555
ENDBRANCH15481552
ENDBRANCH15471548
ENDBRANCH15461547
ENDBRANCH15271546
ENDBRANCH15261529
ENDBRANCH15221526
ENDBRANCH15211522
ENDBRANCH15201521
ENDBRANCH14811520
ENDBRANCH14801494
ENDBRANCH14761480
ENDBRANCH14751476
ENDBRANCH14741475
ENDBRANCH14571474
ENDBRANCH14561459
ENDBRANCH14521456
ENDBRANCH14511452
ENDBRANCH14501451
ENDBRANCH14291450
ENDBRANCH14281431
ENDBRANCH14241428
ENDBRANCH14231424
ENDBRANCH14221423
ENDBRANCH14031422
ENDBRANCH14021405
ENDBRANCH13981402
ENDBRANCH13971398
ENDBRANCH13961397
ENDBRANCH13771396
ENDBRANCH13761379
ENDBRANCH13721376
ENDBRANCH13711372
ENDBRANCH13701371
ENDBRANCH13511370
ENDBRANCH13501353
ENDBRANCH13461350
ENDBRANCH13451346
ENDBRANCH13441345
ENDBRANCH13271344
ENDBRANCH13261329
ENDBRANCH13221326
ENDBRANCH13211322
ENDBRANCH13201321
ENDBRANCH13041320
ENDBRANCH13031306
ENDBRANCH12991303
ENDBRANCH12981299
ENDBRANCH12971298
ENDBRANCH12811297
ENDBRANCH12801283
ENDBRANCH12761280
ENDBRANCH12751276
ENDBRANCH12741275
ENDBRANCH12581274
ENDBRANCH12571260
ENDBRANCH12531257
ENDBRANCH12521253
ENDBRANCH12511252
ENDBRANCH12351251
ENDBRANCH12341237
ENDBRANCH12301234
ENDBRANCH12291230
ENDBRANCH12281229
ENDBRANCH12121228
ENDBRANCH12111214
ENDBRANCH12071211
ENDBRANCH12061207
ENDBRANCH12051206
ENDBRANCH11891205
ENDBRANCH11881191
ENDBRANCH11841188
ENDBRANCH11831184
ENDBRANCH11821183
ENDBRANCH11631182
ENDBRANCH11621165
ENDBRANCH11581162
ENDBRANCH11571158
ENDBRANCH11561157
ENDBRANCH11371156
ENDBRANCH11361139
ENDBRANCH11321136
ENDBRANCH11311132
ENDBRANCH11301131
ENDBRANCH11111130
ENDBRANCH11101113
ENDBRANCH11061110
ENDBRANCH11051106
ENDBRANCH11041105
ENDBRANCH10851104
ENDBRANCH10841087
ENDBRANCH10801084
ENDBRANCH10791080
ENDBRANCH10781079
ENDBRANCH10621078
ENDBRANCH10611064
ENDBRANCH10571061
ENDBRANCH10561057
ENDBRANCH10551056
ENDBRANCH10361055
ENDBRANCH10351038
ENDBRANCH10311035
ENDBRANCH10301031
ENDBRANCH10291030
ENDBRANCH10101029
ENDBRANCH10091012
ENDBRANCH10051009
ENDBRANCH10041005
ENDBRANCH10031004
ENDBRANCH 9871003
ENDBRANCH 986 989
ENDBRANCH 982 986
ENDBRANCH 981 982
ENDBRANCH 980 981
ENDBRANCH 961 980
ENDBRANCH 960 963
ENDBRANCH 956 960
ENDBRANCH 955 956
ENDBRANCH 954 955
ENDBRANCH 938 954
ENDBRANCH 937 940
ENDBRANCH   1 937
TORSDOF 611
