REMARK  Name = /storage/kiran-stuff/aaRS/phase2/energy_scoring/vina_182jobs/anc_thrrs_cat_ARG_ARG/ligand.h.pdb
REMARK  7 active torsions:
REMARK  status: ('A' for Active; 'I' for Inactive)
REMARK    1  A    between atoms: N_1  and  CA_2
REMARK    2  A    between atoms: CA_2  and  C_3
REMARK    3  A    between atoms: CA_2  and  CB_5
REMARK    4  A    between atoms: C_3  and  OXT_12
REMARK    5  A    between atoms: CB_5  and  CG_6
REMARK    6  A    between atoms: CG_6  and  CD_7
REMARK    7  A    between atoms: CD_7  and  NE_8
REMARK                            x       y       z     vdW  Elec       q    Type
REMARK                         _______ _______ _______ _____ _____    ______ ____
ROOT
ATOM      1  CG  ARG B   1     -16.645  -3.278   1.213  0.00  0.00    +0.000 C 
ENDROOT
BRANCH   1   2
ATOM      2  CB  ARG B   1     -17.607  -4.067   0.377  0.00  0.00    +0.000 C 
BRANCH   2   3
ATOM      3  CA  ARG B   1     -17.243  -5.529   0.209  0.00  0.00    +0.000 C 
BRANCH   3   4
ATOM      4  N   ARG B   1     -17.787  -5.957  -1.055  0.00  0.00    +0.000 NA
ATOM      5  H   ARG B   1     -17.429  -5.359  -1.799  0.00  0.00    +0.000 HD
ATOM      6  H   ARG B   1     -18.805  -5.892  -1.027  0.00  0.00    +0.000 HD
ENDBRANCH   3   4
BRANCH   3   7
ATOM      7  C   ARG B   1     -17.756  -6.393   1.312  0.00  0.00    +0.000 C 
ATOM      8  O   ARG B   1     -18.185  -7.497   1.030  0.00  0.00    +0.000 OA
BRANCH   7   9
ATOM      9  OXT ARG B   1     -17.737  -6.045   2.481  0.00  0.00    +0.000 OA
ATOM     10  H   ARG B   1     -17.410  -5.198   2.712  0.00  0.00    +0.000 HD
ENDBRANCH   7   9
ENDBRANCH   3   7
ENDBRANCH   2   3
ENDBRANCH   1   2
BRANCH   1  11
ATOM     11  CD  ARG B   1     -17.199  -2.989   2.565  0.00  0.00    +0.000 C 
BRANCH  11  12
ATOM     12  NE  ARG B   1     -16.421  -3.688   3.572  0.00  0.00    +0.000 NA
ATOM     13  CZ  ARG B   1     -15.490  -3.089   4.304  0.00  0.00    +0.000 C 
ATOM     14  NH1 ARG B   1     -15.197  -1.806   4.099  0.00  0.00    +0.000 N 
ATOM     15  NH2 ARG B   1     -14.859  -3.774   5.226  0.00  0.00    +0.000 N 
ATOM     16  H   ARG B   1     -15.675  -1.297   3.405  0.00  0.00    +0.000 HD
ATOM     17  H   ARG B   1     -14.503  -1.367   4.642  0.00  0.00    +0.000 HD
ATOM     18  H   ARG B   1     -15.080  -4.722   5.373  0.00  0.00    +0.000 HD
ATOM     19  H   ARG B   1     -14.164  -3.341   5.772  0.00  0.00    +0.000 HD
ENDBRANCH  11  12
ENDBRANCH   1  11
TORSDOF 7
