REMARK  Name = /storage/kiran-stuff/aaRS/phase2/energy_scoring/vina_182jobs/anc_thrrs_cat_ARG_ARG/ligand.h.pdb
REMARK  7 active torsions:
REMARK  status: ('A' for Active; 'I' for Inactive)
REMARK    1  A    between atoms: N_1  and  CA_2
REMARK    2  A    between atoms: CA_2  and  C_3
REMARK    3  A    between atoms: CA_2  and  CB_5
REMARK    4  A    between atoms: C_3  and  OXT_12
REMARK    5  A    between atoms: CB_5  and  CG_6
REMARK    6  A    between atoms: CG_6  and  CD_7
REMARK    7  A    between atoms: CD_7  and  NE_8
REMARK                            x       y       z     vdW  Elec       q    Type
REMARK                         _______ _______ _______ _____ _____    ______ ____
ROOT
ATOM      1  CG  ARG B   1     -17.033  -3.381   1.093  0.00  0.00    +0.000 C 
ENDROOT
BRANCH   1   2
ATOM      2  CB  ARG B   1     -17.969  -4.402   0.518  0.00  0.00    +0.000 C 
BRANCH   2   3
ATOM      3  CA  ARG B   1     -17.828  -5.790   1.111  0.00  0.00    +0.000 C 
BRANCH   3   4
ATOM      4  N   ARG B   1     -17.744  -6.714   0.009  0.00  0.00    +0.000 NA
ATOM      5  H   ARG B   1     -16.969  -6.449  -0.598  0.00  0.00    +0.000 HD
ATOM      6  H   ARG B   1     -18.615  -6.690  -0.523  0.00  0.00    +0.000 HD
ENDBRANCH   3   4
BRANCH   3   7
ATOM      7  C   ARG B   1     -18.958  -6.161   2.012  0.00  0.00    +0.000 C 
ATOM      8  O   ARG B   1     -19.599  -7.164   1.753  0.00  0.00    +0.000 OA
BRANCH   7   9
ATOM      9  OXT ARG B   1     -19.245  -5.515   3.006  0.00  0.00    +0.000 OA
ATOM     10  H   ARG B   1     -18.761  -4.741   3.217  0.00  0.00    +0.000 HD
ENDBRANCH   7   9
ENDBRANCH   3   7
ENDBRANCH   2   3
ENDBRANCH   1   2
BRANCH   1  11
ATOM     11  CD  ARG B   1     -17.742  -2.118   1.439  0.00  0.00    +0.000 C 
BRANCH  11  12
ATOM     12  NE  ARG B   1     -17.049  -1.450   2.526  0.00  0.00    +0.000 NA
ATOM     13  CZ  ARG B   1     -16.298  -0.371   2.343  0.00  0.00    +0.000 C 
ATOM     14  NH1 ARG B   1     -16.110   0.117   1.118  0.00  0.00    +0.000 N 
ATOM     15  NH2 ARG B   1     -15.738   0.205   3.379  0.00  0.00    +0.000 N 
ATOM     16  H   ARG B   1     -16.534  -0.320   0.344  0.00  0.00    +0.000 HD
ATOM     17  H   ARG B   1     -15.549   0.915   0.987  0.00  0.00    +0.000 HD
ATOM     18  H   ARG B   1     -15.880  -0.161   4.282  0.00  0.00    +0.000 HD
ATOM     19  H   ARG B   1     -15.176   1.003   3.254  0.00  0.00    +0.000 HD
ENDBRANCH  11  12
ENDBRANCH   1  11
TORSDOF 7
