REMARK  Name = /storage/kiran-stuff/aaRS/phase2/energy_scoring/vina_182jobs/modern_ecoli_cat_phe_PHE/ligand.h.pdb
REMARK  5 active torsions:
REMARK  status: ('A' for Active; 'I' for Inactive)
REMARK    1  A    between atoms: N_1  and  CA_2
REMARK    2  A    between atoms: CA_2  and  C_3
REMARK    3  A    between atoms: CA_2  and  CB_5
REMARK    4  A    between atoms: C_3  and  O_4
REMARK    5  A    between atoms: CB_5  and  CG_6
REMARK                            x       y       z     vdW  Elec       q    Type
REMARK                         _______ _______ _______ _____ _____    ______ ____
ROOT
ATOM      1  CA  PHE B   1      -4.771  -0.589 -11.815  0.00  0.00    +0.000 C 
ENDROOT
BRANCH   1   2
ATOM      2  N   PHE B   1      -5.909  -0.578 -12.704  0.00  0.00    +0.000 NA
ATOM      3  H   PHE B   1      -5.670  -1.063 -13.569  0.00  0.00    +0.000 HD
ATOM      4  H   PHE B   1      -6.166   0.386 -12.915  0.00  0.00    +0.000 HD
ENDBRANCH   1   2
BRANCH   1   5
ATOM      5  C   PHE B   1      -5.159   0.140 -10.538  0.00  0.00    +0.000 C 
ATOM      6  OXT PHE B   1      -5.820   1.184 -10.614  0.00  0.00    +0.000 OA
BRANCH   5   7
ATOM      7  O   PHE B   1      -4.824  -0.313  -9.431  0.00  0.00    +0.000 OA
ATOM      8  H   PHE B   1      -4.324  -1.104  -9.380  0.00  0.00    +0.000 HD
ENDBRANCH   5   7
ENDBRANCH   1   5
BRANCH   1   9
ATOM      9  CB  PHE B   1      -3.657   0.091 -12.579  0.00  0.00    +0.000 C 
BRANCH   9  10
ATOM     10  CG  PHE B   1      -2.558   0.620 -11.765  0.00  0.00    +0.000 A 
ATOM     11  CD1 PHE B   1      -1.521  -0.218 -11.370  0.00  0.00    +0.000 A 
ATOM     12  CD2 PHE B   1      -2.569   1.950 -11.367  0.00  0.00    +0.000 A 
ATOM     13  CE1 PHE B   1      -0.506   0.295 -10.585  0.00  0.00    +0.000 A 
ATOM     14  CE2 PHE B   1      -1.554   2.445 -10.586  0.00  0.00    +0.000 A 
ATOM     15  CZ  PHE B   1      -0.516   1.622 -10.193  0.00  0.00    +0.000 A 
ENDBRANCH   9  10
ENDBRANCH   1   9
TORSDOF 5
