REMARK  Name = /storage/kiran-stuff/aaRS/phase2/energy_scoring/vina_182jobs/modern_ecoli_cat_phe_PHE/ligand.h.pdb
REMARK  5 active torsions:
REMARK  status: ('A' for Active; 'I' for Inactive)
REMARK    1  A    between atoms: N_1  and  CA_2
REMARK    2  A    between atoms: CA_2  and  C_3
REMARK    3  A    between atoms: CA_2  and  CB_5
REMARK    4  A    between atoms: C_3  and  O_4
REMARK    5  A    between atoms: CB_5  and  CG_6
REMARK                            x       y       z     vdW  Elec       q    Type
REMARK                         _______ _______ _______ _____ _____    ______ ____
ROOT
ATOM      1  CA  PHE B   1      -4.053  -0.314 -11.834  0.00  0.00    +0.000 C 
ENDROOT
BRANCH   1   2
ATOM      2  N   PHE B   1      -4.298  -0.430 -13.252  0.00  0.00    +0.000 NA
ATOM      3  H   PHE B   1      -3.682  -1.141 -13.647  0.00  0.00    +0.000 HD
ATOM      4  H   PHE B   1      -4.116   0.466 -13.703  0.00  0.00    +0.000 HD
ENDBRANCH   1   2
BRANCH   1   5
ATOM      5  C   PHE B   1      -4.984   0.750 -11.276  0.00  0.00    +0.000 C 
ATOM      6  OXT PHE B   1      -5.069   1.842 -11.853  0.00  0.00    +0.000 OA
BRANCH   5   7
ATOM      7  O   PHE B   1      -5.659   0.522 -10.258  0.00  0.00    +0.000 OA
ATOM      8  H   PHE B   1      -5.590  -0.306  -9.826  0.00  0.00    +0.000 HD
ENDBRANCH   5   7
ENDBRANCH   1   5
BRANCH   1   9
ATOM      9  CB  PHE B   1      -2.589   0.043 -11.707  0.00  0.00    +0.000 C 
BRANCH   9  10
ATOM     10  CG  PHE B   1      -2.206   0.726 -10.467  0.00  0.00    +0.000 A 
ATOM     11  CD1 PHE B   1      -2.322   0.068  -9.247  0.00  0.00    +0.000 A 
ATOM     12  CD2 PHE B   1      -1.754   2.038 -10.510  0.00  0.00    +0.000 A 
ATOM     13  CE1 PHE B   1      -1.977   0.737  -8.089  0.00  0.00    +0.000 A 
ATOM     14  CE2 PHE B   1      -1.416   2.690  -9.350  0.00  0.00    +0.000 A 
ATOM     15  CZ  PHE B   1      -1.522   2.043  -8.134  0.00  0.00    +0.000 A 
ENDBRANCH   9  10
ENDBRANCH   1   9
TORSDOF 5
