REMARK  Name = /storage/kiran-stuff/aaRS/phase2/energy_scoring/vina_182jobs/anc_prors_cat_ALA_ALA/ligand.h.pdb
REMARK  4 active torsions:
REMARK  status: ('A' for Active; 'I' for Inactive)
REMARK    1  A    between atoms: N_1  and  CA_2
REMARK    2  A    between atoms: CA_2  and  C_3
REMARK    3  A    between atoms: CA_2  and  CB_5
REMARK    4  A    between atoms: C_3  and  OXT_6
REMARK                            x       y       z     vdW  Elec       q    Type
REMARK                         _______ _______ _______ _____ _____    ______ ____
ROOT
ATOM      1  CA  ALA B   1       2.085   0.925  23.890  0.00  0.00    +0.000 C 
ATOM      2  CB  ALA B   1       3.028   0.782  25.042  0.00  0.00    +0.000 C 
ENDROOT
BRANCH   1   3
ATOM      3  N   ALA B   1       0.794   1.409  24.396  0.00  0.00    +0.000 NA
ATOM      4  H   ALA B   1       0.141   1.511  23.619  0.00  0.00    +0.000 HD
ATOM      5  H   ALA B   1       0.924   2.312  24.851  0.00  0.00    +0.000 HD
ENDBRANCH   1   3
BRANCH   1   6
ATOM      6  C   ALA B   1       1.883  -0.357  23.140  0.00  0.00    +0.000 C 
ATOM      7  O   ALA B   1       1.250  -0.343  22.075  0.00  0.00    +0.000 OA
BRANCH   6   8
ATOM      8  OXT ALA B   1       2.299  -1.443  23.571  0.00  0.00    +0.000 OA
ATOM      9  H   ALA B   1       2.780  -1.475  24.375  0.00  0.00    +0.000 HD
ENDBRANCH   6   8
ENDBRANCH   1   6
TORSDOF 3
