REMARK  Name = /storage/kiran-stuff/aaRS/phase2/energy_scoring/vina_182jobs/anc_prors_cat_ALA_ALA/ligand.h.pdb
REMARK  4 active torsions:
REMARK  status: ('A' for Active; 'I' for Inactive)
REMARK    1  A    between atoms: N_1  and  CA_2
REMARK    2  A    between atoms: CA_2  and  C_3
REMARK    3  A    between atoms: CA_2  and  CB_5
REMARK    4  A    between atoms: C_3  and  OXT_6
REMARK                            x       y       z     vdW  Elec       q    Type
REMARK                         _______ _______ _______ _____ _____    ______ ____
ROOT
ATOM      1  CA  ALA B   1       3.486   0.935  24.155  0.00  0.00    +0.000 C 
ATOM      2  CB  ALA B   1       4.885   1.195  23.696  0.00  0.00    +0.000 C 
ENDROOT
BRANCH   1   3
ATOM      3  N   ALA B   1       3.354   1.390  25.545  0.00  0.00    +0.000 NA
ATOM      4  H   ALA B   1       2.403   1.218  25.870  0.00  0.00    +0.000 HD
ATOM      5  H   ALA B   1       3.555   2.388  25.596  0.00  0.00    +0.000 HD
ENDBRANCH   1   3
BRANCH   1   6
ATOM      6  C   ALA B   1       3.101  -0.511  24.060  0.00  0.00    +0.000 C 
ATOM      7  O   ALA B   1       2.026  -0.885  24.549  0.00  0.00    +0.000 OA
BRANCH   6   8
ATOM      8  OXT ALA B   1       3.844  -1.356  23.538  0.00  0.00    +0.000 OA
ATOM      9  H   ALA B   1       4.662  -1.093  23.162  0.00  0.00    +0.000 HD
ENDBRANCH   6   8
ENDBRANCH   1   6
TORSDOF 3
