REMARK  Name = /storage/kiran-stuff/aaRS/phase2/energy_scoring/vina_182jobs/modern_thrrs_ecoli_zn_ILE_ILE/ligand.h.pdb
REMARK  7 active torsions:
REMARK  status: ('A' for Active; 'I' for Inactive)
REMARK    1  A    between atoms: N_1  and  CA_2
REMARK    2  A    between atoms: CA_2  and  C_3
REMARK    3  A    between atoms: CA_2  and  CB_5
REMARK    4  A    between atoms: C_3  and  O_4
REMARK    5  A    between atoms: CB_5  and  CG1_6
REMARK    6  A    between atoms: CB_5  and  CG2_7
REMARK    7  A    between atoms: CG1_6  and  CD1_8
REMARK                            x       y       z     vdW  Elec       q    Type
REMARK                         _______ _______ _______ _____ _____    ______ ____
ROOT
ATOM      1  CA  ILE B   1      10.283   3.933   8.767  0.00  0.00    +0.000 C 
ENDROOT
BRANCH   1   2
ATOM      2  N   ILE B   1      10.802   2.888   7.889  0.00  0.00    +0.000 NA
ATOM      3  H   ILE B   1      11.304   3.316   7.111  0.00  0.00    +0.000 HD
ATOM      4  H   ILE B   1      10.027   2.331   7.529  0.00  0.00    +0.000 HD
ENDBRANCH   1   2
BRANCH   1   5
ATOM      5  C   ILE B   1       9.527   3.327   9.941  0.00  0.00    +0.000 C 
ATOM      6  OXT ILE B   1       9.038   2.215   9.843  0.00  0.00    +0.000 OA
BRANCH   5   7
ATOM      7  O   ILE B   1       9.361   4.027  10.963  0.00  0.00    +0.000 OA
ATOM      8  H   ILE B   1       9.747   4.879  11.015  0.00  0.00    +0.000 HD
ENDBRANCH   5   7
ENDBRANCH   1   5
BRANCH   1   9
ATOM      9  CB  ILE B   1       9.365   4.936   8.013  0.00  0.00    +0.000 C 
ATOM     10  CG2 ILE B   1       8.993   4.513   6.647  0.00  0.00    +0.000 C 
BRANCH   9  11
ATOM     11  CG1 ILE B   1      10.040   6.306   7.935  0.00  0.00    +0.000 C 
ATOM     12  CD1 ILE B   1       9.785   7.183   9.098  0.00  0.00    +0.000 C 
ENDBRANCH   9  11
ENDBRANCH   1   9
TORSDOF 5
