REMARK  Name = /storage/kiran-stuff/aaRS/phase2/energy_scoring/vina_182jobs/modern_thrrs_ecoli_zn_ILE_ILE/ligand.h.pdb
REMARK  7 active torsions:
REMARK  status: ('A' for Active; 'I' for Inactive)
REMARK    1  A    between atoms: N_1  and  CA_2
REMARK    2  A    between atoms: CA_2  and  C_3
REMARK    3  A    between atoms: CA_2  and  CB_5
REMARK    4  A    between atoms: C_3  and  O_4
REMARK    5  A    between atoms: CB_5  and  CG1_6
REMARK    6  A    between atoms: CB_5  and  CG2_7
REMARK    7  A    between atoms: CG1_6  and  CD1_8
REMARK                            x       y       z     vdW  Elec       q    Type
REMARK                         _______ _______ _______ _____ _____    ______ ____
ROOT
ATOM      1  CA  ILE B   1      10.570   4.377   8.302  0.00  0.00    +0.000 C 
ENDROOT
BRANCH   1   2
ATOM      2  N   ILE B   1      10.994   3.417   7.287  0.00  0.00    +0.000 NA
ATOM      3  H   ILE B   1      11.326   3.918   6.463  0.00  0.00    +0.000 HD
ATOM      4  H   ILE B   1      10.206   2.824   7.030  0.00  0.00    +0.000 HD
ENDBRANCH   1   2
BRANCH   1   5
ATOM      5  C   ILE B   1      10.068   3.661   9.548  0.00  0.00    +0.000 C 
ATOM      6  OXT ILE B   1       9.499   2.588   9.447  0.00  0.00    +0.000 OA
BRANCH   5   7
ATOM      7  O   ILE B   1      10.188   4.237  10.651  0.00  0.00    +0.000 OA
ATOM      8  H   ILE B   1      10.629   5.061  10.703  0.00  0.00    +0.000 HD
ENDBRANCH   5   7
ENDBRANCH   1   5
BRANCH   1   9
ATOM      9  CB  ILE B   1       9.474   5.347   7.777  0.00  0.00    +0.000 C 
ATOM     10  CG2 ILE B   1       9.079   5.116   6.372  0.00  0.00    +0.000 C 
BRANCH   9  11
ATOM     11  CG1 ILE B   1       9.943   6.795   7.922  0.00  0.00    +0.000 C 
ATOM     12  CD1 ILE B   1       9.573   7.434   9.203  0.00  0.00    +0.000 C 
ENDBRANCH   9  11
ENDBRANCH   1   9
TORSDOF 5
