REMARK  Name = /storage/kiran-stuff/aaRS/phase2/energy_scoring/vina_182jobs/modern_human_full_thr_THR/ligand.h.pdb
REMARK  6 active torsions:
REMARK  status: ('A' for Active; 'I' for Inactive)
REMARK    1  A    between atoms: N_1  and  CA_2
REMARK    2  A    between atoms: CA_2  and  C_3
REMARK    3  A    between atoms: CA_2  and  CB_5
REMARK    4  A    between atoms: C_3  and  OXT_8
REMARK    5  A    between atoms: CB_5  and  OG1_6
REMARK    6  A    between atoms: CB_5  and  CG2_7
REMARK                            x       y       z     vdW  Elec       q    Type
REMARK                         _______ _______ _______ _____ _____    ______ ____
ROOT
ATOM      1  CA  THR B   1       6.593  20.342  -1.989  0.00  0.00    +0.000 C 
ENDROOT
BRANCH   1   2
ATOM      2  N   THR B   1       7.819  21.152  -2.117  0.00  0.00    +0.000 NA
ATOM      3  H   THR B   1       7.587  22.140  -2.011  0.00  0.00    +0.000 HD
ATOM      4  H   THR B   1       8.234  20.997  -3.036  0.00  0.00    +0.000 HD
ENDBRANCH   1   2
BRANCH   1   5
ATOM      5  C   THR B   1       6.909  18.863  -2.143  0.00  0.00    +0.000 C 
ATOM      6  O   THR B   1       7.798  18.505  -2.926  0.00  0.00    +0.000 OA
BRANCH   5   7
ATOM      7  OXT THR B   1       6.221  18.026  -1.516  0.00  0.00    +0.000 OA
ATOM      8  H   THR B   1       5.552  18.316  -0.927  0.00  0.00    +0.000 HD
ENDBRANCH   5   7
ENDBRANCH   1   5
BRANCH   1   9
ATOM      9  CB  THR B   1       5.556  20.758  -3.041  0.00  0.00    +0.000 C 
ATOM     10  CG2 THR B   1       4.163  20.361  -2.617  0.00  0.00    +0.000 C 
BRANCH   9  11
ATOM     11  OG1 THR B   1       5.621  22.160  -3.248  0.00  0.00    +0.000 OA
ATOM     12  H   THR B   1       5.417  22.619  -2.418  0.00  0.00    +0.000 HD
ENDBRANCH   9  11
ENDBRANCH   1   9
TORSDOF 5
