REMARK  Name = /storage/kiran-stuff/aaRS/phase2/energy_scoring/vina_182jobs/modern_human_full_thr_THR/ligand.h.pdb
REMARK  6 active torsions:
REMARK  status: ('A' for Active; 'I' for Inactive)
REMARK    1  A    between atoms: N_1  and  CA_2
REMARK    2  A    between atoms: CA_2  and  C_3
REMARK    3  A    between atoms: CA_2  and  CB_5
REMARK    4  A    between atoms: C_3  and  OXT_8
REMARK    5  A    between atoms: CB_5  and  OG1_6
REMARK    6  A    between atoms: CB_5  and  CG2_7
REMARK                            x       y       z     vdW  Elec       q    Type
REMARK                         _______ _______ _______ _____ _____    ______ ____
ROOT
ATOM      1  CA  THR B   1       6.456  20.058  -1.694  0.00  0.00    +0.000 C 
ENDROOT
BRANCH   1   2
ATOM      2  N   THR B   1       7.711  20.786  -1.429  0.00  0.00    +0.000 NA
ATOM      3  H   THR B   1       7.496  21.745  -1.153  0.00  0.00    +0.000 HD
ATOM      4  H   THR B   1       8.283  20.796  -2.273  0.00  0.00    +0.000 HD
ENDBRANCH   1   2
BRANCH   1   5
ATOM      5  C   THR B   1       6.746  18.624  -2.108  0.00  0.00    +0.000 C 
ATOM      6  O   THR B   1       7.671  18.389  -2.895  0.00  0.00    +0.000 OA
BRANCH   5   7
ATOM      7  OXT THR B   1       6.002  17.708  -1.689  0.00  0.00    +0.000 OA
ATOM      8  H   THR B   1       5.306  17.905  -1.092  0.00  0.00    +0.000 HD
ENDBRANCH   5   7
ENDBRANCH   1   5
BRANCH   1   9
ATOM      9  CB  THR B   1       5.645  20.756  -2.794  0.00  0.00    +0.000 C 
ATOM     10  CG2 THR B   1       4.180  20.814  -2.436  0.00  0.00    +0.000 C 
BRANCH   9  11
ATOM     11  OG1 THR B   1       6.148  22.067  -2.999  0.00  0.00    +0.000 OA
ATOM     12  H   THR B   1       6.059  22.579  -2.180  0.00  0.00    +0.000 HD
ENDBRANCH   9  11
ENDBRANCH   1   9
TORSDOF 5
