REMARK  Name = /storage/kiran-stuff/aaRS/phase2/energy_scoring/vina_182jobs/modern_thrrs_LYS_LYS/ligand.h.pdb
REMARK  8 active torsions:
REMARK  status: ('A' for Active; 'I' for Inactive)
REMARK    1  A    between atoms: N_1  and  CA_2
REMARK    2  A    between atoms: CA_2  and  C_3
REMARK    3  A    between atoms: CA_2  and  CB_5
REMARK    4  A    between atoms: C_3  and  O_4
REMARK    5  A    between atoms: CB_5  and  CG_6
REMARK    6  A    between atoms: CG_6  and  CD_7
REMARK    7  A    between atoms: CD_7  and  CE_8
REMARK    8  A    between atoms: CE_8  and  NZ_9
REMARK                            x       y       z     vdW  Elec       q    Type
REMARK                         _______ _______ _______ _____ _____    ______ ____
ROOT
ATOM      1  CA  LYS B   1       8.629  22.683  -8.887  0.00  0.00    +0.000 C 
ENDROOT
BRANCH   1   2
ATOM      2  N   LYS B   1       9.643  21.833  -9.463  0.00  0.00    +0.000 NA
ATOM      3  H   LYS B   1      10.242  22.386 -10.076  0.00  0.00    +0.000 HD
ATOM      4  H   LYS B   1       9.198  21.090 -10.002  0.00  0.00    +0.000 HD
ENDBRANCH   1   2
BRANCH   1   5
ATOM      5  C   LYS B   1       9.252  23.847  -8.120  0.00  0.00    +0.000 C 
ATOM      6  OXT LYS B   1      10.451  23.798  -7.791  0.00  0.00    +0.000 OA
BRANCH   5   7
ATOM      7  O   LYS B   1       8.556  24.821  -7.821  0.00  0.00    +0.000 OA
ATOM      8  H   LYS B   1       7.654  24.847  -8.075  0.00  0.00    +0.000 HD
ENDBRANCH   5   7
ENDBRANCH   1   5
BRANCH   1   9
ATOM      9  CB  LYS B   1       7.700  21.909  -7.959  0.00  0.00    +0.000 C 
BRANCH   9  10
ATOM     10  CG  LYS B   1       7.691  20.447  -8.239  0.00  0.00    +0.000 C 
BRANCH  10  11
ATOM     11  CD  LYS B   1       6.745  19.732  -7.289  0.00  0.00    +0.000 C 
BRANCH  11  12
ATOM     12  CE  LYS B   1       6.763  18.234  -7.568  0.00  0.00    +0.000 C 
BRANCH  12  13
ATOM     13  NZ  LYS B   1       5.660  17.592  -6.844  0.00  0.00    +0.000 NA
ATOM     14  H   LYS B   1       5.770  17.755  -5.843  0.00  0.00    +0.000 HD
ATOM     15  H   LYS B   1       5.671  16.589  -7.029  0.00  0.00    +0.000 HD
ENDBRANCH  12  13
ENDBRANCH  11  12
ENDBRANCH  10  11
ENDBRANCH   9  10
ENDBRANCH   1   9
TORSDOF 8
