REMARK  Name = /storage/kiran-stuff/aaRS/phase2/energy_scoring/vina_182jobs/modern_prors_ALA_ALA/ligand.h.pdb
REMARK  4 active torsions:
REMARK  status: ('A' for Active; 'I' for Inactive)
REMARK    1  A    between atoms: N_1  and  CA_2
REMARK    2  A    between atoms: CA_2  and  C_3
REMARK    3  A    between atoms: CA_2  and  CB_5
REMARK    4  A    between atoms: C_3  and  OXT_6
REMARK                            x       y       z     vdW  Elec       q    Type
REMARK                         _______ _______ _______ _____ _____    ______ ____
ROOT
ATOM      1  CA  ALA B   1      11.908   2.019   1.751  0.00  0.00    +0.000 C 
ATOM      2  CB  ALA B   1      11.776   0.728   0.976  0.00  0.00    +0.000 C 
ENDROOT
BRANCH   1   3
ATOM      3  N   ALA B   1      12.914   1.837   2.806  0.00  0.00    +0.000 NA
ATOM      4  H   ALA B   1      13.802   1.562   2.386  0.00  0.00    +0.000 HD
ATOM      5  H   ALA B   1      12.603   1.110   3.451  0.00  0.00    +0.000 HD
ENDBRANCH   1   3
BRANCH   1   6
ATOM      6  C   ALA B   1      10.583   2.424   2.322  0.00  0.00    +0.000 C 
ATOM      7  O   ALA B   1       9.592   2.520   1.575  0.00  0.00    +0.000 OA
BRANCH   6   8
ATOM      8  OXT ALA B   1      10.476   2.663   3.535  0.00  0.00    +0.000 OA
ATOM      9  H   ALA B   1      11.224   2.590   4.094  0.00  0.00    +0.000 HD
ENDBRANCH   6   8
ENDBRANCH   1   6
TORSDOF 3
