REMARK  Name = /storage/kiran-stuff/aaRS/phase2/energy_scoring/vina_182jobs/anc_prors_edit_GLN_GLN/ligand.h.pdb
REMARK  6 active torsions:
REMARK  status: ('A' for Active; 'I' for Inactive)
REMARK    1  A    between atoms: N_1  and  CA_2
REMARK    2  A    between atoms: CA_2  and  C_3
REMARK    3  A    between atoms: CA_2  and  CB_5
REMARK    4  A    between atoms: C_3  and  O_4
REMARK    5  A    between atoms: CB_5  and  CG_6
REMARK    6  A    between atoms: CG_6  and  CD_7
REMARK                            x       y       z     vdW  Elec       q    Type
REMARK                         _______ _______ _______ _____ _____    ______ ____
ROOT
ATOM      1  CA  GLN B   1      -0.965 -22.867  -5.453  0.00  0.00    +0.000 C 
ENDROOT
BRANCH   1   2
ATOM      2  N   GLN B   1      -2.218 -22.289  -4.964  0.00  0.00    +0.000 NA
ATOM      3  H   GLN B   1      -2.857 -22.152  -5.747  0.00  0.00    +0.000 HD
ATOM      4  H   GLN B   1      -2.027 -21.391  -4.519  0.00  0.00    +0.000 HD
ENDBRANCH   1   2
BRANCH   1   5
ATOM      5  C   GLN B   1      -1.219 -24.186  -6.190  0.00  0.00    +0.000 C 
ATOM      6  OXT GLN B   1      -0.258 -24.873  -6.550  0.00  0.00    +0.000 OA
BRANCH   5   7
ATOM      7  O   GLN B   1      -2.366 -24.547  -6.411  0.00  0.00    +0.000 OA
ATOM      8  H   GLN B   1      -3.086 -24.016  -6.132  0.00  0.00    +0.000 HD
ENDBRANCH   5   7
ENDBRANCH   1   5
BRANCH   1   9
ATOM      9  CB  GLN B   1      -0.009 -23.074  -4.292  0.00  0.00    +0.000 C 
BRANCH   9  10
ATOM     10  CG  GLN B   1       1.187 -22.144  -4.326  0.00  0.00    +0.000 C 
BRANCH  10  11
ATOM     11  CD  GLN B   1       2.466 -22.822  -4.774  0.00  0.00    +0.000 C 
ATOM     12  OE1 GLN B   1       2.695 -22.990  -5.969  0.00  0.00    +0.000 OA
ATOM     13  NE2 GLN B   1       3.313 -23.257  -3.833  0.00  0.00    +0.000 N 
ATOM     14  H   GLN B   1       4.152 -23.701  -4.093  0.00  0.00    +0.000 HD
ATOM     15  H   GLN B   1       3.097 -23.133  -2.881  0.00  0.00    +0.000 HD
ENDBRANCH  10  11
ENDBRANCH   9  10
ENDBRANCH   1   9
TORSDOF 6
