REMARK  Name = /storage/kiran-stuff/aaRS/phase2/energy_scoring/vina_182jobs/COMPETITION_modern_thrrs_THR_vs_ILE_ILE/ligand.h.pdb
REMARK  6 active torsions:
REMARK  status: ('A' for Active; 'I' for Inactive)
REMARK    1  A    between atoms: N_1  and  CA_2
REMARK    2  A    between atoms: CA_2  and  C_3
REMARK    3  A    between atoms: CA_2  and  CB_5
REMARK    4  A    between atoms: C_3  and  O_4
REMARK    5  A    between atoms: CB_5  and  OG1_6
REMARK    6  A    between atoms: CB_5  and  CG2_7
REMARK                            x       y       z     vdW  Elec       q    Type
REMARK                         _______ _______ _______ _____ _____    ______ ____
ROOT
ATOM      1  CA  THR B   1      -4.539   9.636  -8.303  0.00  0.00    +0.000 C 
ENDROOT
BRANCH   1   2
ATOM      2  N   THR B   1      -4.506  11.074  -8.615  0.00  0.00    +0.000 NA
ATOM      3  H   THR B   1      -3.747  11.263  -9.269  0.00  0.00    +0.000 HD
ATOM      4  H   THR B   1      -4.356  11.605  -7.758  0.00  0.00    +0.000 HD
ENDBRANCH   1   2
BRANCH   1   5
ATOM      5  C   THR B   1      -5.659   9.339  -7.336  0.00  0.00    +0.000 C 
ATOM      6  OXT THR B   1      -6.532   8.537  -7.664  0.00  0.00    +0.000 OA
BRANCH   5   7
ATOM      7  O   THR B   1      -5.618   9.837  -6.223  0.00  0.00    +0.000 OA
ATOM      8  H   THR B   1      -4.938  10.445  -6.006  0.00  0.00    +0.000 HD
ENDBRANCH   5   7
ENDBRANCH   1   5
BRANCH   1   9
ATOM      9  CB  THR B   1      -3.210   9.167  -7.760  0.00  0.00    +0.000 C 
ATOM     10  CG2 THR B   1      -2.988   7.698  -8.035  0.00  0.00    +0.000 C 
BRANCH   9  11
ATOM     11  OG1 THR B   1      -2.147   9.941  -8.330  0.00  0.00    +0.000 OA
ATOM     12  H   THR B   1      -2.137   9.818  -9.292  0.00  0.00    +0.000 HD
ENDBRANCH   9  11
ENDBRANCH   1   9
TORSDOF 5
