REMARK  Name = /storage/kiran-stuff/aaRS/phase2/energy_scoring/vina_182jobs/COMPETITION_modern_thrrs_THR_vs_ILE_ILE/ligand.h.pdb
REMARK  6 active torsions:
REMARK  status: ('A' for Active; 'I' for Inactive)
REMARK    1  A    between atoms: N_1  and  CA_2
REMARK    2  A    between atoms: CA_2  and  C_3
REMARK    3  A    between atoms: CA_2  and  CB_5
REMARK    4  A    between atoms: C_3  and  O_4
REMARK    5  A    between atoms: CB_5  and  OG1_6
REMARK    6  A    between atoms: CB_5  and  CG2_7
REMARK                            x       y       z     vdW  Elec       q    Type
REMARK                         _______ _______ _______ _____ _____    ______ ____
ROOT
ATOM      1  CA  THR B   1      -4.353  10.013  -8.437  0.00  0.00    +0.000 C 
ENDROOT
BRANCH   1   2
ATOM      2  N   THR B   1      -4.223  11.462  -8.658  0.00  0.00    +0.000 NA
ATOM      3  H   THR B   1      -3.388  11.648  -9.213  0.00  0.00    +0.000 HD
ATOM      4  H   THR B   1      -4.146  11.938  -7.759  0.00  0.00    +0.000 HD
ENDBRANCH   1   2
BRANCH   1   5
ATOM      5  C   THR B   1      -5.585   9.720  -7.616  0.00  0.00    +0.000 C 
ATOM      6  OXT THR B   1      -6.211   8.683  -7.831  0.00  0.00    +0.000 OA
BRANCH   5   7
ATOM      7  O   THR B   1      -5.874  10.477  -6.704  0.00  0.00    +0.000 OA
ATOM      8  H   THR B   1      -5.376  11.259  -6.568  0.00  0.00    +0.000 HD
ENDBRANCH   5   7
ENDBRANCH   1   5
BRANCH   1   9
ATOM      9  CB  THR B   1      -3.114   9.450  -7.781  0.00  0.00    +0.000 C 
ATOM     10  CG2 THR B   1      -3.076   7.942  -7.874  0.00  0.00    +0.000 C 
BRANCH   9  11
ATOM     11  OG1 THR B   1      -1.942  10.010  -8.386  0.00  0.00    +0.000 OA
ATOM     12  H   THR B   1      -1.917   9.771  -9.326  0.00  0.00    +0.000 HD
ENDBRANCH   9  11
ENDBRANCH   1   9
TORSDOF 5
