REMARK  Name = /storage/kiran-stuff/aaRS/phase2/energy_scoring/vina_182jobs/fulllength_shallow_thr_THR/ligand.h.pdb
REMARK  619 active torsions:
REMARK  status: ('A' for Active; 'I' for Inactive)
REMARK    1  A    between atoms: P_2  and  OP1_3
REMARK    2  A    between atoms: P_2  and  OP2_4
REMARK    3  A    between atoms: P_2  and  O5'_5
REMARK    4  A    between atoms: O5'_5  and  C5'_6
REMARK    5  A    between atoms: C5'_6  and  C4'_7
REMARK    6  A    between atoms: C3'_9  and  O3'_10
REMARK    7  A    between atoms: O3'_10  and  P_22
REMARK    8  A    between atoms: C2'_11  and  O2'_12
REMARK    9  A    between atoms: C1'_13  and  N1_14
REMARK   10  A    between atoms: P_22  and  OP2_24
REMARK   11  A    between atoms: P_22  and  O5'_25
REMARK   12  A    between atoms: O5'_25  and  C5'_26
REMARK   13  A    between atoms: C5'_26  and  C4'_27
REMARK   14  A    between atoms: C3'_29  and  O3'_30
REMARK   15  A    between atoms: O3'_30  and  P_42
REMARK   16  A    between atoms: C2'_31  and  O2'_32
REMARK   17  A    between atoms: C1'_33  and  N1_34
REMARK   18  A    between atoms: P_42  and  OP2_44
REMARK   19  A    between atoms: P_42  and  O5'_45
REMARK   20  A    between atoms: O5'_45  and  C5'_46
REMARK   21  A    between atoms: C5'_46  and  C4'_47
REMARK   22  A    between atoms: C3'_49  and  O3'_50
REMARK   23  A    between atoms: O3'_50  and  P_64
REMARK   24  A    between atoms: C2'_51  and  O2'_52
REMARK   25  A    between atoms: C1'_53  and  N9_54
REMARK   26  A    between atoms: P_64  and  OP1_65
REMARK   27  A    between atoms: P_64  and  O5'_67
REMARK   28  A    between atoms: O5'_67  and  C5'_68
REMARK   29  A    between atoms: C5'_68  and  C4'_69
REMARK   30  A    between atoms: C3'_71  and  O3'_72
REMARK   31  A    between atoms: O3'_72  and  P_86
REMARK   32  A    between atoms: C2'_73  and  O2'_74
REMARK   33  A    between atoms: C1'_75  and  N9_76
REMARK   34  A    between atoms: P_86  and  OP1_87
REMARK   35  A    between atoms: P_86  and  O5'_89
REMARK   36  A    between atoms: O5'_89  and  C5'_90
REMARK   37  A    between atoms: C5'_90  and  C4'_91
REMARK   38  A    between atoms: C3'_93  and  O3'_94
REMARK   39  A    between atoms: O3'_94  and  P_106
REMARK   40  A    between atoms: C2'_95  and  O2'_96
REMARK   41  A    between atoms: C1'_97  and  N1_98
REMARK   42  A    between atoms: P_106  and  OP1_107
REMARK   43  A    between atoms: P_106  and  O5'_109
REMARK   44  A    between atoms: O5'_109  and  C5'_110
REMARK   45  A    between atoms: C5'_110  and  C4'_111
REMARK   46  A    between atoms: C3'_113  and  O3'_114
REMARK   47  A    between atoms: O3'_114  and  P_128
REMARK   48  A    between atoms: C2'_115  and  O2'_116
REMARK   49  A    between atoms: C1'_117  and  N9_118
REMARK   50  A    between atoms: C6_122  and  N6_123
REMARK   51  A    between atoms: P_128  and  OP1_129
REMARK   52  A    between atoms: P_128  and  O5'_131
REMARK   53  A    between atoms: O5'_131  and  C5'_132
REMARK   54  A    between atoms: C5'_132  and  C4'_133
REMARK   55  A    between atoms: C3'_135  and  O3'_136
REMARK   56  A    between atoms: O3'_136  and  P_148
REMARK   57  A    between atoms: C2'_137  and  O2'_138
REMARK   58  A    between atoms: C1'_139  and  N1_140
REMARK   59  A    between atoms: P_148  and  OP1_149
REMARK   60  A    between atoms: P_148  and  O5'_151
REMARK   61  A    between atoms: O5'_151  and  C5'_152
REMARK   62  A    between atoms: C5'_152  and  C4'_153
REMARK   63  A    between atoms: C3'_155  and  O3'_156
REMARK   64  A    between atoms: O3'_156  and  P_168
REMARK   65  A    between atoms: C2'_157  and  O2'_158
REMARK   66  A    between atoms: C1'_159  and  N1_160
REMARK   67  A    between atoms: P_168  and  OP2_170
REMARK   68  A    between atoms: P_168  and  O5'_171
REMARK   69  A    between atoms: O5'_171  and  C5'_172
REMARK   70  A    between atoms: C5'_172  and  C4'_173
REMARK   71  A    between atoms: C3'_175  and  O3'_176
REMARK   72  A    between atoms: O3'_176  and  P_190
REMARK   73  A    between atoms: C2'_177  and  O2'_178
REMARK   74  A    between atoms: C1'_179  and  N9_180
REMARK   75  A    between atoms: P_190  and  OP2_192
REMARK   76  A    between atoms: P_190  and  O5'_193
REMARK   77  A    between atoms: O5'_193  and  C5'_194
REMARK   78  A    between atoms: C5'_194  and  C4'_195
REMARK   79  A    between atoms: C3'_197  and  O3'_198
REMARK   80  A    between atoms: O3'_198  and  P_210
REMARK   81  A    between atoms: C2'_199  and  O2'_200
REMARK   82  A    between atoms: C1'_201  and  N1_202
REMARK   83  A    between atoms: P_210  and  OP1_211
REMARK   84  A    between atoms: P_210  and  O5'_213
REMARK   85  A    between atoms: O5'_213  and  C5'_214
REMARK   86  A    between atoms: C5'_214  and  C4'_215
REMARK   87  A    between atoms: C3'_217  and  O3'_218
REMARK   88  A    between atoms: O3'_218  and  P_230
REMARK   89  A    between atoms: C2'_219  and  O2'_220
REMARK   90  A    between atoms: C1'_221  and  N1_222
REMARK   91  A    between atoms: P_230  and  OP1_231
REMARK   92  A    between atoms: P_230  and  O5'_233
REMARK   93  A    between atoms: O5'_233  and  C5'_234
REMARK   94  A    between atoms: C5'_234  and  C4'_235
REMARK   95  A    between atoms: C3'_237  and  O3'_238
REMARK   96  A    between atoms: O3'_238  and  P_250
REMARK   97  A    between atoms: C2'_239  and  O2'_240
REMARK   98  A    between atoms: C1'_241  and  N1_242
REMARK   99  A    between atoms: P_250  and  OP1_251
REMARK  100  A    between atoms: P_250  and  O5'_253
REMARK  101  A    between atoms: O5'_253  and  C5'_254
REMARK  102  A    between atoms: C5'_254  and  C4'_255
REMARK  103  A    between atoms: C3'_257  and  O3'_258
REMARK  104  A    between atoms: O3'_258  and  P_270
REMARK  105  A    between atoms: C2'_259  and  O2'_260
REMARK  106  A    between atoms: C1'_261  and  N1_262
REMARK  107  A    between atoms: P_270  and  OP1_271
REMARK  108  A    between atoms: P_270  and  O5'_273
REMARK  109  A    between atoms: O5'_273  and  C5'_274
REMARK  110  A    between atoms: C5'_274  and  C4'_275
REMARK  111  A    between atoms: C3'_277  and  O3'_278
REMARK  112  A    between atoms: O3'_278  and  P_292
REMARK  113  A    between atoms: C2'_279  and  O2'_280
REMARK  114  A    between atoms: C1'_281  and  N9_282
REMARK  115  A    between atoms: C6_286  and  N6_287
REMARK  116  A    between atoms: P_292  and  OP1_293
REMARK  117  A    between atoms: P_292  and  O5'_295
REMARK  118  A    between atoms: O5'_295  and  C5'_296
REMARK  119  A    between atoms: C5'_296  and  C4'_297
REMARK  120  A    between atoms: C3'_299  and  O3'_300
REMARK  121  A    between atoms: O3'_300  and  P_312
REMARK  122  A    between atoms: C2'_301  and  O2'_302
REMARK  123  A    between atoms: C1'_303  and  N1_304
REMARK  124  A    between atoms: P_312  and  OP2_314
REMARK  125  A    between atoms: P_312  and  O5'_315
REMARK  126  A    between atoms: O5'_315  and  C5'_316
REMARK  127  A    between atoms: C5'_316  and  C4'_317
REMARK  128  A    between atoms: C3'_319  and  O3'_320
REMARK  129  A    between atoms: O3'_320  and  P_332
REMARK  130  A    between atoms: C2'_321  and  O2'_322
REMARK  131  A    between atoms: C1'_323  and  N1_324
REMARK  132  A    between atoms: P_332  and  OP2_334
REMARK  133  A    between atoms: P_332  and  O5'_335
REMARK  134  A    between atoms: O5'_335  and  C5'_336
REMARK  135  A    between atoms: C5'_336  and  C4'_337
REMARK  136  A    between atoms: C3'_339  and  O3'_340
REMARK  137  A    between atoms: O3'_340  and  P_352
REMARK  138  A    between atoms: C2'_341  and  O2'_342
REMARK  139  A    between atoms: C1'_343  and  N1_344
REMARK  140  A    between atoms: P_352  and  OP1_353
REMARK  141  A    between atoms: P_352  and  O5'_355
REMARK  142  A    between atoms: O5'_355  and  C5'_356
REMARK  143  A    between atoms: C5'_356  and  C4'_357
REMARK  144  A    between atoms: C3'_359  and  O3'_360
REMARK  145  A    between atoms: O3'_360  and  P_375
REMARK  146  A    between atoms: C2'_361  and  O2'_362
REMARK  147  A    between atoms: C1'_363  and  N9_364
REMARK  148  A    between atoms: P_375  and  OP1_376
REMARK  149  A    between atoms: P_375  and  O5'_378
REMARK  150  A    between atoms: O5'_378  and  C5'_379
REMARK  151  A    between atoms: C5'_379  and  C4'_380
REMARK  152  A    between atoms: C3'_382  and  O3'_383
REMARK  153  A    between atoms: O3'_383  and  P_397
REMARK  154  A    between atoms: C2'_384  and  O2'_385
REMARK  155  A    between atoms: C1'_386  and  N9_387
REMARK  156  A    between atoms: C6_391  and  N6_392
REMARK  157  A    between atoms: P_397  and  OP1_398
REMARK  158  A    between atoms: P_397  and  O5'_400
REMARK  159  A    between atoms: O5'_400  and  C5'_401
REMARK  160  A    between atoms: C5'_401  and  C4'_402
REMARK  161  A    between atoms: C3'_404  and  O3'_405
REMARK  162  A    between atoms: O3'_405  and  P_419
REMARK  163  A    between atoms: C2'_406  and  O2'_407
REMARK  164  A    between atoms: C1'_408  and  N9_409
REMARK  165  A    between atoms: C6_413  and  N6_414
REMARK  166  A    between atoms: P_419  and  OP1_420
REMARK  167  A    between atoms: P_419  and  O5'_422
REMARK  168  A    between atoms: O5'_422  and  C5'_423
REMARK  169  A    between atoms: C5'_423  and  C4'_424
REMARK  170  A    between atoms: C3'_426  and  O3'_427
REMARK  171  A    between atoms: O3'_427  and  P_441
REMARK  172  A    between atoms: C2'_428  and  O2'_429
REMARK  173  A    between atoms: C1'_430  and  N9_431
REMARK  174  A    between atoms: C6_435  and  N6_436
REMARK  175  A    between atoms: P_441  and  OP1_442
REMARK  176  A    between atoms: P_441  and  O5'_444
REMARK  177  A    between atoms: O5'_444  and  C5'_445
REMARK  178  A    between atoms: C5'_445  and  C4'_446
REMARK  179  A    between atoms: C3'_448  and  O3'_449
REMARK  180  A    between atoms: O3'_449  and  P_461
REMARK  181  A    between atoms: C2'_450  and  O2'_451
REMARK  182  A    between atoms: C1'_452  and  N1_453
REMARK  183  A    between atoms: P_461  and  OP1_462
REMARK  184  A    between atoms: P_461  and  O5'_464
REMARK  185  A    between atoms: O5'_464  and  C5'_465
REMARK  186  A    between atoms: C5'_465  and  C4'_466
REMARK  187  A    between atoms: C3'_468  and  O3'_469
REMARK  188  A    between atoms: O3'_469  and  P_481
REMARK  189  A    between atoms: C2'_470  and  O2'_471
REMARK  190  A    between atoms: C1'_472  and  N1_473
REMARK  191  A    between atoms: P_481  and  OP2_483
REMARK  192  A    between atoms: P_481  and  O5'_484
REMARK  193  A    between atoms: O5'_484  and  C5'_485
REMARK  194  A    between atoms: C5'_485  and  C4'_486
REMARK  195  A    between atoms: C3'_488  and  O3'_489
REMARK  196  A    between atoms: O3'_489  and  P_501
REMARK  197  A    between atoms: C2'_490  and  O2'_491
REMARK  198  A    between atoms: C1'_492  and  N1_493
REMARK  199  A    between atoms: P_501  and  OP2_503
REMARK  200  A    between atoms: P_501  and  O5'_504
REMARK  201  A    between atoms: O5'_504  and  C5'_505
REMARK  202  A    between atoms: C5'_505  and  C4'_506
REMARK  203  A    between atoms: C3'_508  and  O3'_509
REMARK  204  A    between atoms: O3'_509  and  P_521
REMARK  205  A    between atoms: C2'_510  and  O2'_511
REMARK  206  A    between atoms: C1'_512  and  N1_513
REMARK  207  A    between atoms: P_521  and  OP1_522
REMARK  208  A    between atoms: P_521  and  O5'_524
REMARK  209  A    between atoms: O5'_524  and  C5'_525
REMARK  210  A    between atoms: C5'_525  and  C4'_526
REMARK  211  A    between atoms: C3'_528  and  O3'_529
REMARK  212  A    between atoms: O3'_529  and  P_541
REMARK  213  A    between atoms: C2'_530  and  O2'_531
REMARK  214  A    between atoms: C1'_532  and  N1_533
REMARK  215  A    between atoms: P_541  and  OP1_542
REMARK  216  A    between atoms: P_541  and  O5'_544
REMARK  217  A    between atoms: O5'_544  and  C5'_545
REMARK  218  A    between atoms: C5'_545  and  C4'_546
REMARK  219  A    between atoms: C3'_548  and  O3'_549
REMARK  220  A    between atoms: O3'_549  and  P_561
REMARK  221  A    between atoms: C2'_550  and  O2'_551
REMARK  222  A    between atoms: C1'_552  and  N1_553
REMARK  223  A    between atoms: P_561  and  OP1_562
REMARK  224  A    between atoms: P_561  and  O5'_564
REMARK  225  A    between atoms: O5'_564  and  C5'_565
REMARK  226  A    between atoms: C5'_565  and  C4'_566
REMARK  227  A    between atoms: C3'_568  and  O3'_569
REMARK  228  A    between atoms: O3'_569  and  P_581
REMARK  229  A    between atoms: C2'_570  and  O2'_571
REMARK  230  A    between atoms: C1'_572  and  N1_573
REMARK  231  A    between atoms: P_581  and  OP1_582
REMARK  232  A    between atoms: P_581  and  O5'_584
REMARK  233  A    between atoms: O5'_584  and  C5'_585
REMARK  234  A    between atoms: C5'_585  and  C4'_586
REMARK  235  A    between atoms: C3'_588  and  O3'_589
REMARK  236  A    between atoms: O3'_589  and  P_603
REMARK  237  A    between atoms: C2'_590  and  O2'_591
REMARK  238  A    between atoms: C1'_592  and  N9_593
REMARK  239  A    between atoms: C6_597  and  N6_598
REMARK  240  A    between atoms: P_603  and  OP1_604
REMARK  241  A    between atoms: P_603  and  O5'_606
REMARK  242  A    between atoms: O5'_606  and  C5'_607
REMARK  243  A    between atoms: C5'_607  and  C4'_608
REMARK  244  A    between atoms: C3'_610  and  O3'_611
REMARK  245  A    between atoms: O3'_611  and  P_625
REMARK  246  A    between atoms: C2'_612  and  O2'_613
REMARK  247  A    between atoms: C1'_614  and  N9_615
REMARK  248  A    between atoms: C6_619  and  N6_620
REMARK  249  A    between atoms: P_625  and  OP1_626
REMARK  250  A    between atoms: P_625  and  O5'_628
REMARK  251  A    between atoms: O5'_628  and  C5'_629
REMARK  252  A    between atoms: C5'_629  and  C4'_630
REMARK  253  A    between atoms: C3'_632  and  O3'_633
REMARK  254  A    between atoms: O3'_633  and  P_647
REMARK  255  A    between atoms: C2'_634  and  O2'_635
REMARK  256  A    between atoms: C1'_636  and  N9_637
REMARK  257  A    between atoms: C6_641  and  N6_642
REMARK  258  A    between atoms: P_647  and  OP2_649
REMARK  259  A    between atoms: P_647  and  O5'_650
REMARK  260  A    between atoms: O5'_650  and  C5'_651
REMARK  261  A    between atoms: C5'_651  and  C4'_652
REMARK  262  A    between atoms: C3'_654  and  O3'_655
REMARK  263  A    between atoms: O3'_655  and  P_669
REMARK  264  A    between atoms: C2'_656  and  O2'_657
REMARK  265  A    between atoms: C1'_658  and  N9_659
REMARK  266  A    between atoms: P_669  and  OP2_671
REMARK  267  A    between atoms: P_669  and  O5'_672
REMARK  268  A    between atoms: O5'_672  and  C5'_673
REMARK  269  A    between atoms: C5'_673  and  C4'_674
REMARK  270  A    between atoms: C3'_676  and  O3'_677
REMARK  271  A    between atoms: O3'_677  and  P_689
REMARK  272  A    between atoms: C2'_678  and  O2'_679
REMARK  273  A    between atoms: C1'_680  and  N1_681
REMARK  274  A    between atoms: P_689  and  OP2_691
REMARK  275  A    between atoms: P_689  and  O5'_692
REMARK  276  A    between atoms: O5'_692  and  C5'_693
REMARK  277  A    between atoms: C5'_693  and  C4'_694
REMARK  278  A    between atoms: C3'_696  and  O3'_697
REMARK  279  A    between atoms: O3'_697  and  P_711
REMARK  280  A    between atoms: C2'_698  and  O2'_699
REMARK  281  A    between atoms: C1'_700  and  N9_701
REMARK  282  A    between atoms: P_711  and  OP2_713
REMARK  283  A    between atoms: P_711  and  O5'_714
REMARK  284  A    between atoms: O5'_714  and  C5'_715
REMARK  285  A    between atoms: C5'_715  and  C4'_716
REMARK  286  A    between atoms: C3'_718  and  O3'_719
REMARK  287  A    between atoms: O3'_719  and  P_733
REMARK  288  A    between atoms: C2'_720  and  O2'_721
REMARK  289  A    between atoms: C1'_722  and  N9_723
REMARK  290  A    between atoms: P_733  and  OP1_734
REMARK  291  A    between atoms: P_733  and  O5'_736
REMARK  292  A    between atoms: O5'_736  and  C5'_737
REMARK  293  A    between atoms: C5'_737  and  C4'_738
REMARK  294  A    between atoms: C3'_740  and  O3'_741
REMARK  295  A    between atoms: O3'_741  and  P_753
REMARK  296  A    between atoms: C2'_742  and  O2'_743
REMARK  297  A    between atoms: C1'_744  and  N1_745
REMARK  298  A    between atoms: P_753  and  OP1_754
REMARK  299  A    between atoms: P_753  and  O5'_756
REMARK  300  A    between atoms: O5'_756  and  C5'_757
REMARK  301  A    between atoms: C5'_757  and  C4'_758
REMARK  302  A    between atoms: C3'_760  and  O3'_761
REMARK  303  A    between atoms: O3'_761  and  P_775
REMARK  304  A    between atoms: C2'_762  and  O2'_763
REMARK  305  A    between atoms: C1'_764  and  N9_765
REMARK  306  A    between atoms: C6_769  and  N6_770
REMARK  307  A    between atoms: P_775  and  OP1_776
REMARK  308  A    between atoms: P_775  and  O5'_778
REMARK  309  A    between atoms: O5'_778  and  C5'_779
REMARK  310  A    between atoms: C5'_779  and  C4'_780
REMARK  311  A    between atoms: C1'_786  and  N1_787
REMARK  312  A    between atoms: P_795  and  OP1_796
REMARK  313  A    between atoms: C2'_804  and  O2'_805
REMARK  314  A    between atoms: C1'_806  and  N1_807
REMARK  315  A    between atoms: P_815  and  O5'_818
REMARK  316  A    between atoms: O5'_818  and  C5'_819
REMARK  317  A    between atoms: C5'_819  and  C4'_820
REMARK  318  A    between atoms: C3'_822  and  O3'_823
REMARK  319  A    between atoms: O3'_823  and  P_835
REMARK  320  A    between atoms: C2'_824  and  O2'_825
REMARK  321  A    between atoms: C1'_826  and  N1_827
REMARK  322  A    between atoms: P_835  and  OP2_837
REMARK  323  A    between atoms: P_835  and  O5'_838
REMARK  324  A    between atoms: O5'_838  and  C5'_839
REMARK  325  A    between atoms: C5'_839  and  C4'_840
REMARK  326  A    between atoms: C3'_842  and  O3'_843
REMARK  327  A    between atoms: O3'_843  and  P_855
REMARK  328  A    between atoms: C2'_844  and  O2'_845
REMARK  329  A    between atoms: C1'_846  and  N1_847
REMARK  330  A    between atoms: P_855  and  OP2_857
REMARK  331  A    between atoms: P_855  and  O5'_858
REMARK  332  A    between atoms: O5'_858  and  C5'_859
REMARK  333  A    between atoms: C5'_859  and  C4'_860
REMARK  334  A    between atoms: C3'_862  and  O3'_863
REMARK  335  A    between atoms: O3'_863  and  P_875
REMARK  336  A    between atoms: C2'_864  and  O2'_865
REMARK  337  A    between atoms: C1'_866  and  N1_867
REMARK  338  A    between atoms: P_875  and  OP2_877
REMARK  339  A    between atoms: P_875  and  O5'_878
REMARK  340  A    between atoms: O5'_878  and  C5'_879
REMARK  341  A    between atoms: C5'_879  and  C4'_880
REMARK  342  A    between atoms: C3'_882  and  O3'_883
REMARK  343  A    between atoms: O3'_883  and  P_897
REMARK  344  A    between atoms: C2'_884  and  O2'_885
REMARK  345  A    between atoms: C1'_886  and  N9_887
REMARK  346  A    between atoms: C6_891  and  N6_892
REMARK  347  A    between atoms: P_897  and  OP1_898
REMARK  348  A    between atoms: P_897  and  O5'_900
REMARK  349  A    between atoms: O5'_900  and  C5'_901
REMARK  350  A    between atoms: C5'_901  and  C4'_902
REMARK  351  A    between atoms: C3'_904  and  O3'_905
REMARK  352  A    between atoms: O3'_905  and  P_917
REMARK  353  A    between atoms: C2'_906  and  O2'_907
REMARK  354  A    between atoms: C1'_908  and  N1_909
REMARK  355  A    between atoms: P_917  and  OP1_918
REMARK  356  A    between atoms: P_917  and  O5'_920
REMARK  357  A    between atoms: O5'_920  and  C5'_921
REMARK  358  A    between atoms: C5'_921  and  C4'_922
REMARK  359  A    between atoms: C3'_924  and  O3'_925
REMARK  360  A    between atoms: O3'_925  and  P_937
REMARK  361  A    between atoms: C2'_926  and  O2'_927
REMARK  362  A    between atoms: C1'_928  and  N1_929
REMARK  363  A    between atoms: P_937  and  OP1_938
REMARK  364  A    between atoms: P_937  and  O5'_940
REMARK  365  A    between atoms: O5'_940  and  C5'_941
REMARK  366  A    between atoms: C5'_941  and  C4'_942
REMARK  367  A    between atoms: C3'_944  and  O3'_945
REMARK  368  A    between atoms: O3'_945  and  P_957
REMARK  369  A    between atoms: C2'_946  and  O2'_947
REMARK  370  A    between atoms: C1'_948  and  N1_949
REMARK  371  A    between atoms: P_957  and  OP2_959
REMARK  372  A    between atoms: P_957  and  O5'_960
REMARK  373  A    between atoms: O5'_960  and  C5'_961
REMARK  374  A    between atoms: C5'_961  and  C4'_962
REMARK  375  A    between atoms: C3'_964  and  O3'_965
REMARK  376  A    between atoms: O3'_965  and  P_977
REMARK  377  A    between atoms: C2'_966  and  O2'_967
REMARK  378  A    between atoms: C1'_968  and  N1_969
REMARK  379  A    between atoms: P_977  and  OP2_979
REMARK  380  A    between atoms: P_977  and  O5'_980
REMARK  381  A    between atoms: O5'_980  and  C5'_981
REMARK  382  A    between atoms: C5'_981  and  C4'_982
REMARK  383  A    between atoms: C3'_984  and  O3'_985
REMARK  384  A    between atoms: O3'_985  and  P_999
REMARK  385  A    between atoms: C2'_986  and  O2'_987
REMARK  386  A    between atoms: C1'_988  and  N9_989
REMARK  387  A    between atoms: P_999  and  OP2_1001
REMARK  388  A    between atoms: P_999  and  O5'_1002
REMARK  389  A    between atoms: O5'_1002  and  C5'_1003
REMARK  390  A    between atoms: C5'_1003  and  C4'_1004
REMARK  391  A    between atoms: C3'_1006  and  O3'_1007
REMARK  392  A    between atoms: O3'_1007  and  P_1019
REMARK  393  A    between atoms: C2'_1008  and  O2'_1009
REMARK  394  A    between atoms: C1'_1010  and  N1_1011
REMARK  395  A    between atoms: P_1019  and  OP2_1021
REMARK  396  A    between atoms: P_1019  and  O5'_1022
REMARK  397  A    between atoms: O5'_1022  and  C5'_1023
REMARK  398  A    between atoms: C5'_1023  and  C4'_1024
REMARK  399  A    between atoms: C3'_1026  and  O3'_1027
REMARK  400  A    between atoms: O3'_1027  and  P_1039
REMARK  401  A    between atoms: C2'_1028  and  O2'_1029
REMARK  402  A    between atoms: C1'_1030  and  N1_1031
REMARK  403  A    between atoms: P_1039  and  OP2_1041
REMARK  404  A    between atoms: P_1039  and  O5'_1042
REMARK  405  A    between atoms: O5'_1042  and  C5'_1043
REMARK  406  A    between atoms: C5'_1043  and  C4'_1044
REMARK  407  A    between atoms: C3'_1046  and  O3'_1047
REMARK  408  A    between atoms: O3'_1047  and  P_1059
REMARK  409  A    between atoms: C2'_1048  and  O2'_1049
REMARK  410  A    between atoms: C1'_1050  and  N1_1051
REMARK  411  A    between atoms: P_1059  and  OP2_1061
REMARK  412  A    between atoms: P_1059  and  O5'_1062
REMARK  413  A    between atoms: O5'_1062  and  C5'_1063
REMARK  414  A    between atoms: C5'_1063  and  C4'_1064
REMARK  415  A    between atoms: C3'_1066  and  O3'_1067
REMARK  416  A    between atoms: O3'_1067  and  P_1079
REMARK  417  A    between atoms: C2'_1068  and  O2'_1069
REMARK  418  A    between atoms: C1'_1070  and  N1_1071
REMARK  419  A    between atoms: P_1079  and  OP2_1081
REMARK  420  A    between atoms: P_1079  and  O5'_1082
REMARK  421  A    between atoms: O5'_1082  and  C5'_1083
REMARK  422  A    between atoms: C5'_1083  and  C4'_1084
REMARK  423  A    between atoms: C3'_1086  and  O3'_1087
REMARK  424  A    between atoms: O3'_1087  and  P_1101
REMARK  425  A    between atoms: C2'_1088  and  O2'_1089
REMARK  426  A    between atoms: C1'_1090  and  N9_1091
REMARK  427  A    between atoms: C6_1095  and  N6_1096
REMARK  428  A    between atoms: P_1101  and  OP1_1102
REMARK  429  A    between atoms: P_1101  and  O5'_1104
REMARK  430  A    between atoms: O5'_1104  and  C5'_1105
REMARK  431  A    between atoms: C5'_1105  and  C4'_1106
REMARK  432  A    between atoms: C3'_1108  and  O3'_1109
REMARK  433  A    between atoms: O3'_1109  and  P_1123
REMARK  434  A    between atoms: C2'_1110  and  O2'_1111
REMARK  435  A    between atoms: C1'_1112  and  N9_1113
REMARK  436  A    between atoms: C6_1117  and  N6_1118
REMARK  437  A    between atoms: P_1123  and  OP1_1124
REMARK  438  A    between atoms: P_1123  and  O5'_1126
REMARK  439  A    between atoms: O5'_1126  and  C5'_1127
REMARK  440  A    between atoms: C5'_1127  and  C4'_1128
REMARK  441  A    between atoms: C3'_1130  and  O3'_1131
REMARK  442  A    between atoms: O3'_1131  and  P_1145
REMARK  443  A    between atoms: C2'_1132  and  O2'_1133
REMARK  444  A    between atoms: C1'_1134  and  N9_1135
REMARK  445  A    between atoms: C6_1139  and  N6_1140
REMARK  446  A    between atoms: P_1145  and  OP1_1146
REMARK  447  A    between atoms: P_1145  and  O5'_1148
REMARK  448  A    between atoms: O5'_1148  and  C5'_1149
REMARK  449  A    between atoms: C5'_1149  and  C4'_1150
REMARK  450  A    between atoms: C3'_1152  and  O3'_1153
REMARK  451  A    between atoms: O3'_1153  and  P_1167
REMARK  452  A    between atoms: C2'_1154  and  O2'_1155
REMARK  453  A    between atoms: C1'_1156  and  N9_1157
REMARK  454  A    between atoms: C6_1161  and  N6_1162
REMARK  455  A    between atoms: P_1167  and  OP1_1168
REMARK  456  A    between atoms: P_1167  and  O5'_1170
REMARK  457  A    between atoms: O5'_1170  and  C5'_1171
REMARK  458  A    between atoms: C5'_1171  and  C4'_1172
REMARK  459  A    between atoms: C3'_1174  and  O3'_1175
REMARK  460  A    between atoms: O3'_1175  and  P_1189
REMARK  461  A    between atoms: C2'_1176  and  O2'_1177
REMARK  462  A    between atoms: C1'_1178  and  N9_1179
REMARK  463  A    between atoms: C6_1183  and  N6_1184
REMARK  464  A    between atoms: P_1189  and  OP2_1191
REMARK  465  A    between atoms: P_1189  and  O5'_1192
REMARK  466  A    between atoms: O5'_1192  and  C5'_1193
REMARK  467  A    between atoms: C5'_1193  and  C4'_1194
REMARK  468  A    between atoms: C3'_1196  and  O3'_1197
REMARK  469  A    between atoms: O3'_1197  and  P_1209
REMARK  470  A    between atoms: C2'_1198  and  O2'_1199
REMARK  471  A    between atoms: C1'_1200  and  N1_1201
REMARK  472  A    between atoms: P_1209  and  OP2_1211
REMARK  473  A    between atoms: P_1209  and  O5'_1212
REMARK  474  A    between atoms: O5'_1212  and  C5'_1213
REMARK  475  A    between atoms: C5'_1213  and  C4'_1214
REMARK  476  A    between atoms: C3'_1216  and  O3'_1217
REMARK  477  A    between atoms: O3'_1217  and  P_1231
REMARK  478  A    between atoms: C2'_1218  and  O2'_1219
REMARK  479  A    between atoms: C1'_1220  and  N9_1221
REMARK  480  A    between atoms: P_1231  and  OP2_1233
REMARK  481  A    between atoms: P_1231  and  O5'_1234
REMARK  482  A    between atoms: O5'_1234  and  C5'_1235
REMARK  483  A    between atoms: C5'_1235  and  C4'_1236
REMARK  484  A    between atoms: C3'_1238  and  O3'_1239
REMARK  485  A    between atoms: O3'_1239  and  P_1254
REMARK  486  A    between atoms: C2'_1240  and  O2'_1241
REMARK  487  A    between atoms: C1'_1242  and  N9_1243
REMARK  488  A    between atoms: P_1254  and  OP2_1256
REMARK  489  A    between atoms: P_1254  and  O5'_1257
REMARK  490  A    between atoms: O5'_1257  and  C5'_1258
REMARK  491  A    between atoms: C5'_1258  and  C4'_1259
REMARK  492  A    between atoms: C3'_1261  and  O3'_1262
REMARK  493  A    between atoms: O3'_1262  and  P_1276
REMARK  494  A    between atoms: C2'_1263  and  O2'_1264
REMARK  495  A    between atoms: C1'_1265  and  N9_1266
REMARK  496  A    between atoms: P_1276  and  OP2_1278
REMARK  497  A    between atoms: P_1276  and  O5'_1279
REMARK  498  A    between atoms: O5'_1279  and  C5'_1280
REMARK  499  A    between atoms: C5'_1280  and  C4'_1281
REMARK  500  A    between atoms: C3'_1283  and  O3'_1284
REMARK  501  A    between atoms: O3'_1284  and  P_1296
REMARK  502  A    between atoms: C2'_1285  and  O2'_1286
REMARK  503  A    between atoms: C1'_1287  and  N1_1288
REMARK  504  A    between atoms: P_1296  and  OP1_1297
REMARK  505  A    between atoms: P_1296  and  O5'_1299
REMARK  506  A    between atoms: O5'_1299  and  C5'_1300
REMARK  507  A    between atoms: C5'_1300  and  C4'_1301
REMARK  508  A    between atoms: C3'_1303  and  O3'_1304
REMARK  509  A    between atoms: O3'_1304  and  P_1316
REMARK  510  A    between atoms: C2'_1305  and  O2'_1306
REMARK  511  A    between atoms: C1'_1307  and  N1_1308
REMARK  512  A    between atoms: P_1316  and  OP1_1317
REMARK  513  A    between atoms: P_1316  and  O5'_1319
REMARK  514  A    between atoms: O5'_1319  and  C5'_1320
REMARK  515  A    between atoms: C5'_1320  and  C4'_1321
REMARK  516  A    between atoms: C3'_1323  and  O3'_1324
REMARK  517  A    between atoms: O3'_1324  and  P_1338
REMARK  518  A    between atoms: C2'_1325  and  O2'_1326
REMARK  519  A    between atoms: C1'_1327  and  N9_1328
REMARK  520  A    between atoms: C6_1332  and  N6_1333
REMARK  521  A    between atoms: P_1338  and  OP1_1339
REMARK  522  A    between atoms: P_1338  and  O5'_1341
REMARK  523  A    between atoms: O5'_1341  and  C5'_1342
REMARK  524  A    between atoms: C5'_1342  and  C4'_1343
REMARK  525  A    between atoms: C3'_1345  and  O3'_1346
REMARK  526  A    between atoms: O3'_1346  and  P_1358
REMARK  527  A    between atoms: C2'_1347  and  O2'_1348
REMARK  528  A    between atoms: C1'_1349  and  N1_1350
REMARK  529  A    between atoms: P_1358  and  OP1_1359
REMARK  530  A    between atoms: P_1358  and  O5'_1361
REMARK  531  A    between atoms: O5'_1361  and  C5'_1362
REMARK  532  A    between atoms: C5'_1362  and  C4'_1363
REMARK  533  A    between atoms: C3'_1365  and  O3'_1366
REMARK  534  A    between atoms: O3'_1366  and  P_1380
REMARK  535  A    between atoms: C2'_1367  and  O2'_1368
REMARK  536  A    between atoms: C1'_1369  and  N9_1370
REMARK  537  A    between atoms: C6_1374  and  N6_1375
REMARK  538  A    between atoms: P_1380  and  OP1_1381
REMARK  539  A    between atoms: P_1380  and  O5'_1383
REMARK  540  A    between atoms: O5'_1383  and  C5'_1384
REMARK  541  A    between atoms: C5'_1384  and  C4'_1385
REMARK  542  A    between atoms: C3'_1387  and  O3'_1388
REMARK  543  A    between atoms: O3'_1388  and  P_1402
REMARK  544  A    between atoms: C2'_1389  and  O2'_1390
REMARK  545  A    between atoms: C1'_1391  and  N9_1392
REMARK  546  A    between atoms: C6_1396  and  N6_1397
REMARK  547  A    between atoms: P_1402  and  OP1_1403
REMARK  548  A    between atoms: P_1402  and  O5'_1405
REMARK  549  A    between atoms: O5'_1405  and  C5'_1406
REMARK  550  A    between atoms: C5'_1406  and  C4'_1407
REMARK  551  A    between atoms: C3'_1409  and  O3'_1410
REMARK  552  A    between atoms: O3'_1410  and  P_1424
REMARK  553  A    between atoms: C2'_1411  and  O2'_1412
REMARK  554  A    between atoms: C1'_1413  and  N9_1414
REMARK  555  A    between atoms: P_1424  and  OP1_1425
REMARK  556  A    between atoms: P_1424  and  O5'_1427
REMARK  557  A    between atoms: O5'_1427  and  C5'_1428
REMARK  558  A    between atoms: C5'_1428  and  C4'_1429
REMARK  559  A    between atoms: C3'_1431  and  O3'_1432
REMARK  560  A    between atoms: O3'_1432  and  P_1446
REMARK  561  A    between atoms: C2'_1433  and  O2'_1434
REMARK  562  A    between atoms: C1'_1435  and  N9_1436
REMARK  563  A    between atoms: P_1446  and  OP1_1447
REMARK  564  A    between atoms: P_1446  and  O5'_1449
REMARK  565  A    between atoms: O5'_1449  and  C5'_1450
REMARK  566  A    between atoms: C5'_1450  and  C4'_1451
REMARK  567  A    between atoms: C3'_1453  and  O3'_1454
REMARK  568  A    between atoms: O3'_1454  and  P_1468
REMARK  569  A    between atoms: C2'_1455  and  O2'_1456
REMARK  570  A    between atoms: C1'_1457  and  N9_1458
REMARK  571  A    between atoms: C6_1462  and  N6_1463
REMARK  572  A    between atoms: P_1468  and  OP1_1469
REMARK  573  A    between atoms: P_1468  and  O5'_1471
REMARK  574  A    between atoms: O5'_1471  and  C5'_1472
REMARK  575  A    between atoms: C5'_1472  and  C4'_1473
REMARK  576  A    between atoms: C3'_1475  and  O3'_1476
REMARK  577  A    between atoms: O3'_1476  and  P_1488
REMARK  578  A    between atoms: C2'_1477  and  O2'_1478
REMARK  579  A    between atoms: C1'_1479  and  N1_1480
REMARK  580  A    between atoms: P_1488  and  OP1_1489
REMARK  581  A    between atoms: P_1488  and  O5'_1491
REMARK  582  A    between atoms: O5'_1491  and  C5'_1492
REMARK  583  A    between atoms: C5'_1492  and  C4'_1493
REMARK  584  A    between atoms: C3'_1495  and  O3'_1496
REMARK  585  A    between atoms: O3'_1496  and  P_1508
REMARK  586  A    between atoms: C2'_1497  and  O2'_1498
REMARK  587  A    between atoms: C1'_1499  and  N1_1500
REMARK  588  A    between atoms: P_1508  and  OP1_1509
REMARK  589  A    between atoms: P_1508  and  O5'_1511
REMARK  590  A    between atoms: O5'_1511  and  C5'_1512
REMARK  591  A    between atoms: C5'_1512  and  C4'_1513
REMARK  592  A    between atoms: C3'_1515  and  O3'_1516
REMARK  593  A    between atoms: O3'_1516  and  P_1528
REMARK  594  A    between atoms: C2'_1517  and  O2'_1518
REMARK  595  A    between atoms: C1'_1519  and  N1_1520
REMARK  596  A    between atoms: P_1528  and  OP1_1529
REMARK  597  A    between atoms: P_1528  and  O5'_1531
REMARK  598  A    between atoms: O5'_1531  and  C5'_1532
REMARK  599  A    between atoms: C5'_1532  and  C4'_1533
REMARK  600  A    between atoms: C3'_1535  and  O3'_1536
REMARK  601  A    between atoms: O3'_1536  and  P_1548
REMARK  602  A    between atoms: C2'_1537  and  O2'_1538
REMARK  603  A    between atoms: C1'_1539  and  N1_1540
REMARK  604  A    between atoms: P_1548  and  OP1_1549
REMARK  605  A    between atoms: P_1548  and  O5'_1551
REMARK  606  A    between atoms: O5'_1551  and  C5'_1552
REMARK  607  A    between atoms: C5'_1552  and  C4'_1553
REMARK  608  A    between atoms: C3'_1555  and  O3'_1556
REMARK  609  A    between atoms: O3'_1556  and  P_1568
REMARK  610  A    between atoms: C2'_1557  and  O2'_1558
REMARK  611  A    between atoms: C1'_1559  and  N1_1560
REMARK  612  A    between atoms: P_1568  and  OP1_1569
REMARK  613  A    between atoms: P_1568  and  O5'_1571
REMARK  614  A    between atoms: O5'_1571  and  C5'_1572
REMARK  615  A    between atoms: C5'_1572  and  C4'_1573
REMARK  616  A    between atoms: C3'_1575  and  O3'_1576
REMARK  617  A    between atoms: C2'_1577  and  O2'_1578
REMARK  618  A    between atoms: C1'_1579  and  N9_1580
REMARK  619  A    between atoms: C6_1584  and  N6_1585
REMARK                            x       y       z     vdW  Elec       q    Type
REMARK                         _______ _______ _______ _____ _____    ______ ____
ROOT
ATOM      1  C4' U   B  38     -32.123  27.395  11.927  0.00  0.00    +0.000 C 
ATOM      2  O4' U   B  38     -31.137  27.580  10.866  0.00  0.00    +0.000 OA
ATOM      3  C3' U   B  38     -32.161  28.709  12.714  0.00  0.00    +0.000 C 
ATOM      4  O3' U   B  38     -31.307  28.615  13.849  0.00  0.00    +0.000 OA
ATOM      5  C2' U   B  38     -31.579  29.709  11.723  0.00  0.00    +0.000 C 
ATOM      6  O2' U   B  38     -31.007  30.869  12.304  0.00  0.00    +0.000 OA
ATOM      7  C1' U   B  38     -30.539  28.851  11.009  0.00  0.00    +0.000 C 
ATOM      8  P   U   B  39     -31.822  29.096  15.279  0.00  0.00    +0.000 P 
ATOM      9  OP2 U   B  39     -33.186  28.583  15.502  0.00  0.00    +0.000 OA
ATOM     10  O5' U   B  39     -31.914  30.682  15.150  0.00  0.00    +0.000 OA
ATOM     11  C5' U   B  39     -33.061  31.332  14.644  0.00  0.00    +0.000 C 
ATOM     12  C4' U   B  39     -32.996  32.823  14.862  0.00  0.00    +0.000 C 
ATOM     13  O4' U   B  39     -32.969  33.106  16.285  0.00  0.00    +0.000 OA
ATOM     14  C3' U   B  39     -31.775  33.525  14.323  0.00  0.00    +0.000 C 
ATOM     15  O3' U   B  39     -31.854  33.785  12.927  0.00  0.00    +0.000 OA
ATOM     16  C2' U   B  39     -31.735  34.799  15.162  0.00  0.00    +0.000 C 
ATOM     17  C1' U   B  39     -32.221  34.282  16.521  0.00  0.00    +0.000 C 
ATOM     18  P   C   B  40     -30.616  33.494  11.979  0.00  0.00    +0.000 P 
ATOM     19  OP1 C   B  40     -30.974  33.951  10.616  0.00  0.00    +0.000 OA
ATOM     20  OP2 C   B  40     -30.208  32.082  12.197  0.00  0.00    +0.000 OA
ENDROOT
BRANCH  17  21
ATOM     21  N1  U   B  39     -31.109  33.978  17.448  0.00  0.00    +0.000 N 
ATOM     22  C2  U   B  39     -30.597  35.030  18.189  0.00  0.00    +0.000 A 
ATOM     23  O2  U   B  39     -31.028  36.170  18.104  0.00  0.00    +0.000 OA
ATOM     24  N3  U   B  39     -29.561  34.707  19.031  0.00  0.00    +0.000 N 
ATOM     25  C4  U   B  39     -28.999  33.465  19.209  0.00  0.00    +0.000 A 
ATOM     26  O4  U   B  39     -28.073  33.335  20.004  0.00  0.00    +0.000 OA
ATOM     27  C5  U   B  39     -29.584  32.430  18.413  0.00  0.00    +0.000 A 
ATOM     28  C6  U   B  39     -30.597  32.716  17.577  0.00  0.00    +0.000 A 
ATOM     29  H   U   B  39     -29.181  35.443  19.563  0.00  0.00    +0.000 HD
ENDBRANCH  17  21
BRANCH   7  30
ATOM     30  N1  U   B  38     -30.143  29.358   9.678  0.00  0.00    +0.000 N 
ATOM     31  C2  U   B  38     -28.788  29.371   9.377  0.00  0.00    +0.000 A 
ATOM     32  O2  U   B  38     -27.937  28.968  10.149  0.00  0.00    +0.000 OA
ATOM     33  N3  U   B  38     -28.470  29.862   8.135  0.00  0.00    +0.000 N 
ATOM     34  C4  U   B  38     -29.344  30.336   7.187  0.00  0.00    +0.000 A 
ATOM     35  O4  U   B  38     -28.898  30.744   6.120  0.00  0.00    +0.000 OA
ATOM     36  C5  U   B  38     -30.726  30.298   7.570  0.00  0.00    +0.000 A 
ATOM     37  C6  U   B  38     -31.071  29.824   8.778  0.00  0.00    +0.000 A 
ATOM     38  H   U   B  38     -27.514  29.876   7.899  0.00  0.00    +0.000 HD
ENDBRANCH   7  30
BRANCH   8  39
ATOM     39  OP1 U   B  39     -30.756  28.769  16.259  0.00  0.00    +0.000 OA
ATOM     40  H   U   B  39     -29.922  29.175  15.977  0.00  0.00    +0.000 HD
ENDBRANCH   8  39
BRANCH  16  41
ATOM     41  O2' U   B  39     -32.637  35.771  14.684  0.00  0.00    +0.000 OA
ATOM     42  H   U   B  39     -33.532  35.397  14.660  0.00  0.00    +0.000 HD
ENDBRANCH  16  41
BRANCH  18  43
ATOM     43  O5' C   B  40     -29.450  34.427  12.519  0.00  0.00    +0.000 OA
BRANCH  43  44
ATOM     44  C5' C   B  40     -29.502  35.843  12.351  0.00  0.00    +0.000 C 
BRANCH  44  45
ATOM     45  C4' C   B  40     -28.197  36.481  12.751  0.00  0.00    +0.000 C 
ATOM     46  O4' C   B  40     -27.937  36.244  14.158  0.00  0.00    +0.000 OA
ATOM     47  C3' C   B  40     -26.966  35.945  12.054  0.00  0.00    +0.000 C 
ATOM     48  C2' C   B  40     -25.851  36.323  13.023  0.00  0.00    +0.000 C 
ATOM     49  C1' C   B  40     -26.543  36.145  14.376  0.00  0.00    +0.000 C 
BRANCH  49  50
ATOM     50  N1  C   B  40     -26.250  34.850  15.022  0.00  0.00    +0.000 N 
ATOM     51  C2  C   B  40     -24.993  34.649  15.604  0.00  0.00    +0.000 A 
ATOM     52  O2  C   B  40     -24.153  35.556  15.552  0.00  0.00    +0.000 OA
ATOM     53  N3  C   B  40     -24.719  33.469  16.208  0.00  0.00    +0.000 NA
ATOM     54  C4  C   B  40     -25.641  32.511  16.250  0.00  0.00    +0.000 A 
ATOM     55  N4  C   B  40     -25.324  31.368  16.859  0.00  0.00    +0.000 N 
ATOM     56  C5  C   B  40     -26.926  32.688  15.671  0.00  0.00    +0.000 A 
ATOM     57  C6  C   B  40     -27.190  33.861  15.077  0.00  0.00    +0.000 A 
ATOM     58  H   C   B  40     -25.982  30.638  16.909  0.00  0.00    +0.000 HD
ATOM     59  H   C   B  40     -24.432  31.254  17.259  0.00  0.00    +0.000 HD
ENDBRANCH  49  50
BRANCH  48  60
ATOM     60  O2' C   B  40     -25.450  37.667  12.877  0.00  0.00    +0.000 OA
ATOM     61  H   C   B  40     -26.217  38.248  12.997  0.00  0.00    +0.000 HD
ENDBRANCH  48  60
BRANCH  47  62
ATOM     62  O3' C   B  40     -26.792  36.514  10.758  0.00  0.00    +0.000 OA
BRANCH  62  63
ATOM     63  P   U   B  41     -26.381  35.596   9.525  0.00  0.00    +0.000 P 
ATOM     64  OP1 U   B  41     -26.465  36.423   8.299  0.00  0.00    +0.000 OA
BRANCH  63  65
ATOM     65  OP2 U   B  41     -27.150  34.330   9.615  0.00  0.00    +0.000 OA
ATOM     66  H   U   B  41     -26.914  33.755   8.871  0.00  0.00    +0.000 HD
ENDBRANCH  63  65
BRANCH  63  67
ATOM     67  O5' U   B  41     -24.851  35.266   9.805  0.00  0.00    +0.000 OA
BRANCH  67  68
ATOM     68  C5' U   B  41     -23.864  36.291   9.786  0.00  0.00    +0.000 C 
BRANCH  68  69
ATOM     69  C4' U   B  41     -22.571  35.804  10.392  0.00  0.00    +0.000 C 
ATOM     70  O4' U   B  41     -22.782  35.458  11.790  0.00  0.00    +0.000 OA
ATOM     71  C3' U   B  41     -21.988  34.546   9.785  0.00  0.00    +0.000 C 
ATOM     72  C2' U   B  41     -21.108  34.017  10.914  0.00  0.00    +0.000 C 
ATOM     73  C1' U   B  41     -21.953  34.371  12.143  0.00  0.00    +0.000 C 
BRANCH  73  74
ATOM     74  N1  U   B  41     -22.805  33.250  12.589  0.00  0.00    +0.000 N 
ATOM     75  C2  U   B  41     -22.225  32.284  13.391  0.00  0.00    +0.000 A 
ATOM     76  O2  U   B  41     -21.056  32.323  13.731  0.00  0.00    +0.000 OA
ATOM     77  N3  U   B  41     -23.062  31.267  13.781  0.00  0.00    +0.000 N 
ATOM     78  C4  U   B  41     -24.394  31.122  13.459  0.00  0.00    +0.000 A 
ATOM     79  O4  U   B  41     -25.015  30.152  13.891  0.00  0.00    +0.000 OA
ATOM     80  C5  U   B  41     -24.922  32.161  12.630  0.00  0.00    +0.000 A 
ATOM     81  C6  U   B  41     -24.128  33.164  12.235  0.00  0.00    +0.000 A 
ATOM     82  H   U   B  41     -22.668  30.567  14.351  0.00  0.00    +0.000 HD
ENDBRANCH  73  74
BRANCH  72  83
ATOM     83  O2' U   B  41     -19.873  34.704  10.991  0.00  0.00    +0.000 OA
ATOM     84  H   U   B  41     -20.038  35.654  11.095  0.00  0.00    +0.000 HD
ENDBRANCH  72  83
BRANCH  71  85
ATOM     85  O3' U   B  41     -21.268  34.805   8.584  0.00  0.00    +0.000 OA
BRANCH  85  86
ATOM     86  P   U   B  42     -21.297  33.784   7.356  0.00  0.00    +0.000 P 
ATOM     87  OP1 U   B  42     -20.840  34.502   6.146  0.00  0.00    +0.000 OA
BRANCH  86  88
ATOM     88  OP2 U   B  42     -22.616  33.103   7.354  0.00  0.00    +0.000 OA
ATOM     89  H   U   B  42     -22.655  32.477   6.614  0.00  0.00    +0.000 HD
ENDBRANCH  86  88
BRANCH  86  90
ATOM     90  O5' U   B  42     -20.185  32.706   7.742  0.00  0.00    +0.000 OA
BRANCH  90  91
ATOM     91  C5' U   B  42     -18.805  33.054   7.783  0.00  0.00    +0.000 C 
BRANCH  91  92
ATOM     92  C4' U   B  42     -18.008  32.005   8.523  0.00  0.00    +0.000 C 
ATOM     93  O4' U   B  42     -18.530  31.856   9.873  0.00  0.00    +0.000 OA
ATOM     94  C3' U   B  42     -18.064  30.605   7.951  0.00  0.00    +0.000 C 
ATOM     95  C2' U   B  42     -17.714  29.745   9.159  0.00  0.00    +0.000 C 
ATOM     96  C1' U   B  42     -18.407  30.514  10.287  0.00  0.00    +0.000 C 
BRANCH  96  97
ATOM     97  N1  U   B  42     -19.752  29.987  10.594  0.00  0.00    +0.000 N 
ATOM     98  C2  U   B  42     -19.830  28.891  11.432  0.00  0.00    +0.000 A 
ATOM     99  O2  U   B  42     -18.849  28.355  11.916  0.00  0.00    +0.000 OA
ATOM    100  N3  U   B  42     -21.103  28.442  11.686  0.00  0.00    +0.000 N 
ATOM    101  C4  U   B  42     -22.283  28.968  11.199  0.00  0.00    +0.000 A 
ATOM    102  O4  U   B  42     -23.352  28.455  11.522  0.00  0.00    +0.000 OA
ATOM    103  C5  U   B  42     -22.118  30.099  10.340  0.00  0.00    +0.000 A 
ATOM    104  C6  U   B  42     -20.889  30.556  10.075  0.00  0.00    +0.000 A 
ATOM    105  H   U   B  42     -21.183  27.661  12.280  0.00  0.00    +0.000 HD
ENDBRANCH  96  97
BRANCH  95 106
ATOM    106  O2' U   B  42     -16.320  29.716   9.408  0.00  0.00    +0.000 OA
ATOM    107  H   U   B  42     -15.993  30.622   9.523  0.00  0.00    +0.000 HD
ENDBRANCH  95 106
BRANCH  94 108
ATOM    108  O3' U   B  42     -17.165  30.424   6.860  0.00  0.00    +0.000 OA
BRANCH 108 109
ATOM    109  P   A   B  43     -17.597  29.620   5.554  0.00  0.00    +0.000 P 
ATOM    110  OP1 A   B  43     -16.413  29.485   4.675  0.00  0.00    +0.000 OA
BRANCH 109 111
ATOM    111  OP2 A   B  43     -18.835  30.243   5.026  0.00  0.00    +0.000 OA
ATOM    112  H   A   B  43     -19.120  29.771   4.228  0.00  0.00    +0.000 HD
ENDBRANCH 109 111
BRANCH 109 113
ATOM    113  O5' A   B  43     -17.974  28.172   6.102  0.00  0.00    +0.000 OA
BRANCH 113 114
ATOM    114  C5' A   B  43     -16.991  27.321   6.679  0.00  0.00    +0.000 C 
BRANCH 114 115
ATOM    115  C4' A   B  43     -17.652  26.181   7.424  0.00  0.00    +0.000 C 
ATOM    116  O4' A   B  43     -18.524  26.714   8.458  0.00  0.00    +0.000 OA
ATOM    117  C3' A   B  43     -18.566  25.302   6.588  0.00  0.00    +0.000 C 
ATOM    118  C2' A   B  43     -19.508  24.726   7.636  0.00  0.00    +0.000 C 
ATOM    119  C1' A   B  43     -19.689  25.925   8.566  0.00  0.00    +0.000 C 
BRANCH 119 120
ATOM    120  N9  A   B  43     -20.849  26.752   8.190  0.00  0.00    +0.000 N 
ATOM    121  C8  A   B  43     -20.854  27.884   7.424  0.00  0.00    +0.000 A 
ATOM    122  N7  A   B  43     -22.048  28.405   7.262  0.00  0.00    +0.000 NA
ATOM    123  C5  A   B  43     -22.883  27.557   7.966  0.00  0.00    +0.000 A 
ATOM    124  C6  A   B  43     -24.270  27.562   8.187  0.00  0.00    +0.000 A 
ATOM    125  N1  A   B  43     -24.791  26.575   8.936  0.00  0.00    +0.000 NA
ATOM    126  C2  A   B  43     -23.967  25.647   9.430  0.00  0.00    +0.000 A 
ATOM    127  N3  A   B  43     -22.644  25.537   9.296  0.00  0.00    +0.000 NA
ATOM    128  C4  A   B  43     -22.157  26.534   8.543  0.00  0.00    +0.000 A 
BRANCH 124 129
ATOM    129  N6  A   B  43     -25.093  28.492   7.684  0.00  0.00    +0.000 N 
ATOM    130  H   A   B  43     -24.731  29.223   7.133  0.00  0.00    +0.000 HD
ATOM    131  H   A   B  43     -26.059  28.444   7.866  0.00  0.00    +0.000 HD
ENDBRANCH 124 129
ENDBRANCH 119 120
BRANCH 118 132
ATOM    132  O2' A   B  43     -18.909  23.669   8.363  0.00  0.00    +0.000 OA
ATOM    133  H   A   B  43     -18.086  23.982   8.769  0.00  0.00    +0.000 HD
ENDBRANCH 118 132
BRANCH 117 134
ATOM    134  O3' A   B  43     -17.849  24.315   5.863  0.00  0.00    +0.000 OA
BRANCH 134 135
ATOM    135  P   C   B  44     -18.453  23.717   4.518  0.00  0.00    +0.000 P 
ATOM    136  OP2 C   B  44     -18.949  24.834   3.665  0.00  0.00    +0.000 OA
BRANCH 135 137
ATOM    137  OP1 C   B  44     -17.459  22.767   3.959  0.00  0.00    +0.000 OA
ATOM    138  H   C   B  44     -17.803  22.386   3.136  0.00  0.00    +0.000 HD
ENDBRANCH 135 137
BRANCH 135 139
ATOM    139  O5' C   B  44     -19.708  22.884   5.037  0.00  0.00    +0.000 OA
BRANCH 139 140
ATOM    140  C5' C   B  44     -20.955  22.946   4.362  0.00  0.00    +0.000 C 
BRANCH 140 141
ATOM    141  C4' C   B  44     -22.070  22.578   5.306  0.00  0.00    +0.000 C 
ATOM    142  O4' C   B  44     -22.419  23.726   6.127  0.00  0.00    +0.000 OA
ATOM    143  C3' C   B  44     -23.378  22.181   4.648  0.00  0.00    +0.000 C 
ATOM    144  C2' C   B  44     -24.389  22.466   5.750  0.00  0.00    +0.000 C 
ATOM    145  C1' C   B  44     -23.810  23.749   6.355  0.00  0.00    +0.000 C 
BRANCH 145 146
ATOM    146  N1  C   B  44     -24.360  24.970   5.731  0.00  0.00    +0.000 N 
ATOM    147  C2  C   B  44     -25.696  25.312   5.961  0.00  0.00    +0.000 A 
ATOM    148  O2  C   B  44     -26.396  24.587   6.689  0.00  0.00    +0.000 OA
ATOM    149  N3  C   B  44     -26.206  26.430   5.385  0.00  0.00    +0.000 NA
ATOM    150  C4  C   B  44     -25.437  27.194   4.605  0.00  0.00    +0.000 A 
ATOM    151  N4  C   B  44     -25.979  28.279   4.063  0.00  0.00    +0.000 N 
ATOM    152  C5  C   B  44     -24.074  26.870   4.356  0.00  0.00    +0.000 A 
ATOM    153  C6  C   B  44     -23.584  25.764   4.931  0.00  0.00    +0.000 A 
ATOM    154  H   C   B  44     -25.438  28.862   3.483  0.00  0.00    +0.000 HD
ATOM    155  H   C   B  44     -26.922  28.500   4.241  0.00  0.00    +0.000 HD
ENDBRANCH 145 146
BRANCH 144 156
ATOM    156  O2' C   B  44     -24.403  21.450   6.742  0.00  0.00    +0.000 OA
ATOM    157  H   C   B  44     -23.511  21.345   7.109  0.00  0.00    +0.000 HD
ENDBRANCH 144 156
BRANCH 143 158
ATOM    158  O3' C   B  44     -23.369  20.819   4.233  0.00  0.00    +0.000 OA
BRANCH 158 159
ATOM    159  P   U   B  45     -24.236  20.352   2.991  0.00  0.00    +0.000 P 
ATOM    160  OP2 U   B  45     -24.185  21.412   1.957  0.00  0.00    +0.000 OA
BRANCH 159 161
ATOM    161  OP1 U   B  45     -23.834  18.970   2.655  0.00  0.00    +0.000 OA
ATOM    162  H   U   B  45     -24.351  18.658   1.896  0.00  0.00    +0.000 HD
ENDBRANCH 159 161
BRANCH 159 163
ATOM    163  O5' U   B  45     -25.717  20.310   3.577  0.00  0.00    +0.000 OA
BRANCH 163 164
ATOM    164  C5' U   B  45     -26.068  19.414   4.622  0.00  0.00    +0.000 C 
BRANCH 164 165
ATOM    165  C4' U   B  45     -27.557  19.399   4.846  0.00  0.00    +0.000 C 
ATOM    166  O4' U   B  45     -28.001  20.677   5.375  0.00  0.00    +0.000 OA
ATOM    167  C3' U   B  45     -28.395  19.211   3.598  0.00  0.00    +0.000 C 
ATOM    168  C2' U   B  45     -29.737  19.800   4.016  0.00  0.00    +0.000 C 
ATOM    169  C1' U   B  45     -29.289  20.984   4.877  0.00  0.00    +0.000 C 
BRANCH 169 170
ATOM    170  N1  U   B  45     -29.212  22.248   4.111  0.00  0.00    +0.000 N 
ATOM    171  C2  U   B  45     -30.402  22.866   3.759  0.00  0.00    +0.000 A 
ATOM    172  O2  U   B  45     -31.498  22.412   4.041  0.00  0.00    +0.000 OA
ATOM    173  N3  U   B  45     -30.261  24.039   3.056  0.00  0.00    +0.000 N 
ATOM    174  C4  U   B  45     -29.083  24.645   2.678  0.00  0.00    +0.000 A 
ATOM    175  O4  U   B  45     -29.124  25.701   2.046  0.00  0.00    +0.000 OA
ATOM    176  C5  U   B  45     -27.903  23.952   3.082  0.00  0.00    +0.000 A 
ATOM    177  C6  U   B  45     -28.006  22.805   3.771  0.00  0.00    +0.000 A 
ATOM    178  H   U   B  45     -31.093  24.496   2.794  0.00  0.00    +0.000 HD
ENDBRANCH 169 170
BRANCH 168 179
ATOM    179  O2' U   B  45     -30.479  18.902   4.815  0.00  0.00    +0.000 OA
ATOM    180  H   U   B  45     -29.952  18.647   5.589  0.00  0.00    +0.000 HD
ENDBRANCH 168 179
BRANCH 167 181
ATOM    181  O3' U   B  45     -28.478  17.848   3.199  0.00  0.00    +0.000 OA
BRANCH 181 182
ATOM    182  P   U   B  46     -28.434  17.448   1.659  0.00  0.00    +0.000 P 
ATOM    183  OP2 U   B  46     -27.350  18.216   0.992  0.00  0.00    +0.000 OA
BRANCH 182 184
ATOM    184  OP1 U   B  46     -28.456  15.971   1.552  0.00  0.00    +0.000 OA
ATOM    185  H   U   B  46     -28.430  15.714   0.617  0.00  0.00    +0.000 HD
ENDBRANCH 182 184
BRANCH 182 186
ATOM    186  O5' U   B  46     -29.824  18.006   1.130  0.00  0.00    +0.000 OA
BRANCH 186 187
ATOM    187  C5' U   B  46     -31.057  17.508   1.641  0.00  0.00    +0.000 C 
BRANCH 187 188
ATOM    188  C4' U   B  46     -32.218  18.341   1.170  0.00  0.00    +0.000 C 
ATOM    189  O4' U   B  46     -32.112  19.689   1.701  0.00  0.00    +0.000 OA
ATOM    190  C3' U   B  46     -32.312  18.546  -0.328  0.00  0.00    +0.000 C 
ATOM    191  C2' U   B  46     -33.162  19.804  -0.425  0.00  0.00    +0.000 C 
ATOM    192  C1' U   B  46     -32.636  20.613   0.767  0.00  0.00    +0.000 C 
BRANCH 192 193
ATOM    193  N1  U   B  46     -31.568  21.557   0.378  0.00  0.00    +0.000 N 
ATOM    194  C2  U   B  46     -31.954  22.755  -0.197  0.00  0.00    +0.000 A 
ATOM    195  O2  U   B  46     -33.121  23.051  -0.388  0.00  0.00    +0.000 OA
ATOM    196  N3  U   B  46     -30.926  23.599  -0.541  0.00  0.00    +0.000 N 
ATOM    197  C4  U   B  46     -29.576  23.371  -0.375  0.00  0.00    +0.000 A 
ATOM    198  O4  U   B  46     -28.772  24.228  -0.738  0.00  0.00    +0.000 OA
ATOM    199  C5  U   B  46     -29.258  22.112   0.224  0.00  0.00    +0.000 A 
ATOM    200  C6  U   B  46     -30.240  21.270   0.569  0.00  0.00    +0.000 A 
ATOM    201  H   U   B  46     -31.180  24.458  -0.949  0.00  0.00    +0.000 HD
ENDBRANCH 192 193
BRANCH 191 202
ATOM    202  O2' U   B  46     -34.532  19.532  -0.222  0.00  0.00    +0.000 OA
ATOM    203  H   U   B  46     -34.651  19.096   0.636  0.00  0.00    +0.000 HD
ENDBRANCH 191 202
BRANCH 190 204
ATOM    204  O3' U   B  46     -32.870  17.423  -0.999  0.00  0.00    +0.000 OA
BRANCH 204 205
ATOM    205  P   U   B  47     -32.411  17.053  -2.477  0.00  0.00    +0.000 P 
ATOM    206  OP1 U   B  47     -32.939  15.705  -2.798  0.00  0.00    +0.000 OA
BRANCH 205 207
ATOM    207  OP2 U   B  47     -30.958  17.325  -2.614  0.00  0.00    +0.000 OA
ATOM    208  H   U   B  47     -30.671  17.102  -3.513  0.00  0.00    +0.000 HD
ENDBRANCH 205 207
BRANCH 205 209
ATOM    209  O5' U   B  47     -33.202  18.120  -3.356  0.00  0.00    +0.000 OA
BRANCH 209 210
ATOM    210  C5' U   B  47     -34.624  18.171  -3.340  0.00  0.00    +0.000 C 
BRANCH 210 211
ATOM    211  C4' U   B  47     -35.138  19.371  -4.093  0.00  0.00    +0.000 C 
ATOM    212  O4' U   B  47     -34.765  20.594  -3.398  0.00  0.00    +0.000 OA
ATOM    213  C3' U   B  47     -34.586  19.563  -5.489  0.00  0.00    +0.000 C 
ATOM    214  C2' U   B  47     -34.845  21.045  -5.730  0.00  0.00    +0.000 C 
ATOM    215  C1' U   B  47     -34.562  21.630  -4.340  0.00  0.00    +0.000 C 
BRANCH 215 216
ATOM    216  N1  U   B  47     -33.177  22.131  -4.210  0.00  0.00    +0.000 N 
ATOM    217  C2  U   B  47     -32.918  23.403  -4.693  0.00  0.00    +0.000 A 
ATOM    218  O2  U   B  47     -33.775  24.102  -5.206  0.00  0.00    +0.000 OA
ATOM    219  N3  U   B  47     -31.618  23.829  -4.551  0.00  0.00    +0.000 N 
ATOM    220  C4  U   B  47     -30.571  23.128  -3.991  0.00  0.00    +0.000 A 
ATOM    221  O4  U   B  47     -29.459  23.648  -3.938  0.00  0.00    +0.000 OA
ATOM    222  C5  U   B  47     -30.918  21.824  -3.519  0.00  0.00    +0.000 A 
ATOM    223  C6  U   B  47     -32.178  21.382  -3.643  0.00  0.00    +0.000 A 
ATOM    224  H   U   B  47     -31.413  24.732  -4.885  0.00  0.00    +0.000 HD
ENDBRANCH 215 216
BRANCH 214 225
ATOM    225  O2' U   B  47     -36.195  21.294  -6.064  0.00  0.00    +0.000 OA
ATOM    226  H   U   B  47     -36.770  20.947  -5.365  0.00  0.00    +0.000 HD
ENDBRANCH 214 225
BRANCH 213 227
ATOM    227  O3' U   B  47     -35.200  18.709  -6.444  0.00  0.00    +0.000 OA
BRANCH 227 228
ATOM    228  P   A   B  48     -34.364  18.169  -7.704  0.00  0.00    +0.000 P 
ATOM    229  OP1 A   B  48     -35.157  17.106  -8.363  0.00  0.00    +0.000 OA
BRANCH 228 230
ATOM    230  OP2 A   B  48     -32.971  17.887  -7.272  0.00  0.00    +0.000 OA
ATOM    231  H   A   B  48     -32.458  17.560  -8.028  0.00  0.00    +0.000 HD
ENDBRANCH 228 230
BRANCH 228 232
ATOM    232  O5' A   B  48     -34.332  19.437  -8.669  0.00  0.00    +0.000 OA
BRANCH 232 233
ATOM    233  C5' A   B  48     -35.541  19.980  -9.190  0.00  0.00    +0.000 C 
BRANCH 233 234
ATOM    234  C4' A   B  48     -35.293  21.314  -9.848  0.00  0.00    +0.000 C 
ATOM    235  O4' A   B  48     -34.861  22.284  -8.856  0.00  0.00    +0.000 OA
ATOM    236  C3' A   B  48     -34.191  21.344 -10.889  0.00  0.00    +0.000 C 
ATOM    237  C2' A   B  48     -33.836  22.823 -10.929  0.00  0.00    +0.000 C 
ATOM    238  C1' A   B  48     -33.964  23.203  -9.450  0.00  0.00    +0.000 C 
BRANCH 238 239
ATOM    239  N9  A   B  48     -32.675  23.123  -8.743  0.00  0.00    +0.000 N 
ATOM    240  C8  A   B  48     -32.189  22.107  -7.962  0.00  0.00    +0.000 A 
ATOM    241  N7  A   B  48     -30.995  22.346  -7.469  0.00  0.00    +0.000 NA
ATOM    242  C5  A   B  48     -30.675  23.600  -7.961  0.00  0.00    +0.000 A 
ATOM    243  C6  A   B  48     -29.547  24.419  -7.807  0.00  0.00    +0.000 A 
ATOM    244  N6  A   B  48     -28.478  24.078  -7.077  0.00  0.00    +0.000 N 
ATOM    245  N1  A   B  48     -29.544  25.611  -8.432  0.00  0.00    +0.000 NA
ATOM    246  C2  A   B  48     -30.609  25.952  -9.164  0.00  0.00    +0.000 A 
ATOM    247  N3  A   B  48     -31.733  25.273  -9.384  0.00  0.00    +0.000 NA
ATOM    248  C4  A   B  48     -31.702  24.091  -8.748  0.00  0.00    +0.000 A 
ATOM    249  H   A   B  48     -27.714  24.695  -7.005  0.00  0.00    +0.000 HD
ATOM    250  H   A   B  48     -28.456  23.211  -6.612  0.00  0.00    +0.000 HD
ENDBRANCH 238 239
BRANCH 237 251
ATOM    251  O2' A   B  48     -34.778  23.569 -11.675  0.00  0.00    +0.000 OA
ATOM    252  H   A   B  48     -35.665  23.431 -11.307  0.00  0.00    +0.000 HD
ENDBRANCH 237 251
BRANCH 236 253
ATOM    253  O3' A   B  48     -34.606  20.825 -12.144  0.00  0.00    +0.000 OA
BRANCH 253 254
ATOM    254  P   U   B  49     -33.568  20.065 -13.096  0.00  0.00    +0.000 P 
ATOM    255  OP1 U   B  49     -34.338  19.398 -14.173  0.00  0.00    +0.000 OA
BRANCH 254 256
ATOM    256  OP2 U   B  49     -32.645  19.269 -12.245  0.00  0.00    +0.000 OA
ATOM    257  H   U   B  49     -32.008  18.801 -12.808  0.00  0.00    +0.000 HD
ENDBRANCH 254 256
BRANCH 254 258
ATOM    258  O5' U   B  49     -32.734  21.259 -13.745  0.00  0.00    +0.000 OA
BRANCH 258 259
ATOM    259  C5' U   B  49     -33.367  22.240 -14.553  0.00  0.00    +0.000 C 
BRANCH 259 260
ATOM    260  C4' U   B  49     -32.462  23.425 -14.792  0.00  0.00    +0.000 C 
ATOM    261  O4' U   B  49     -32.157  24.079 -13.527  0.00  0.00    +0.000 OA
ATOM    262  C3' U   B  49     -31.099  23.116 -15.375  0.00  0.00    +0.000 C 
ATOM    263  C2' U   B  49     -30.302  24.351 -14.984  0.00  0.00    +0.000 C 
ATOM    264  C1' U   B  49     -30.855  24.632 -13.581  0.00  0.00    +0.000 C 
BRANCH 264 265
ATOM    265  N1  U   B  49     -30.027  24.010 -12.524  0.00  0.00    +0.000 N 
ATOM    266  C2  U   B  49     -28.905  24.705 -12.109  0.00  0.00    +0.000 A 
ATOM    267  O2  U   B  49     -28.588  25.785 -12.573  0.00  0.00    +0.000 OA
ATOM    268  N3  U   B  49     -28.163  24.089 -11.128  0.00  0.00    +0.000 N 
ATOM    269  C4  U   B  49     -28.422  22.873 -10.535  0.00  0.00    +0.000 A 
ATOM    270  O4  U   B  49     -27.658  22.450  -9.667  0.00  0.00    +0.000 OA
ATOM    271  C5  U   B  49     -29.597  22.217 -11.017  0.00  0.00    +0.000 A 
ATOM    272  C6  U   B  49     -30.339  22.793 -11.973  0.00  0.00    +0.000 A 
ATOM    273  H   U   B  49     -27.361  24.568 -10.817  0.00  0.00    +0.000 HD
ENDBRANCH 264 265
BRANCH 263 274
ATOM    274  O2' U   B  49     -30.592  25.454 -15.817  0.00  0.00    +0.000 OA
ATOM    275  H   U   B  49     -31.545  25.634 -15.795  0.00  0.00    +0.000 HD
ENDBRANCH 263 274
BRANCH 262 276
ATOM    276  O3' U   B  49     -31.133  22.883 -16.774  0.00  0.00    +0.000 OA
BRANCH 276 277
ATOM    277  P   U   B  50     -30.090  21.863 -17.454  0.00  0.00    +0.000 P 
ATOM    278  OP1 U   B  50     -30.508  21.646 -18.857  0.00  0.00    +0.000 OA
BRANCH 277 279
ATOM    279  OP2 U   B  50     -29.917  20.699 -16.547  0.00  0.00    +0.000 OA
ATOM    280  H   U   B  50     -29.290  20.072 -16.941  0.00  0.00    +0.000 HD
ENDBRANCH 277 279
BRANCH 277 281
ATOM    281  O5' U   B  50     -28.727  22.689 -17.460  0.00  0.00    +0.000 OA
BRANCH 281 282
ATOM    282  C5' U   B  50     -28.601  23.890 -18.210  0.00  0.00    +0.000 C 
BRANCH 282 283
ATOM    283  C4' U   B  50     -27.362  24.661 -17.821  0.00  0.00    +0.000 C 
ATOM    284  O4' U   B  50     -27.415  25.001 -16.407  0.00  0.00    +0.000 OA
ATOM    285  C3' U   B  50     -26.044  23.929 -17.966  0.00  0.00    +0.000 C 
ATOM    286  C2' U   B  50     -25.141  24.716 -17.027  0.00  0.00    +0.000 C 
ATOM    287  C1' U   B  50     -26.105  25.021 -15.874  0.00  0.00    +0.000 C 
BRANCH 287 288
ATOM    288  N1  U   B  50     -26.011  24.020 -14.788  0.00  0.00    +0.000 N 
ATOM    289  C2  U   B  50     -24.975  24.165 -13.882  0.00  0.00    +0.000 A 
ATOM    290  O2  U   B  50     -24.160  25.067 -13.947  0.00  0.00    +0.000 OA
ATOM    291  N3  U   B  50     -24.925  23.210 -12.891  0.00  0.00    +0.000 N 
ATOM    292  C4  U   B  50     -25.787  22.151 -12.720  0.00  0.00    +0.000 A 
ATOM    293  O4  U   B  50     -25.610  21.376 -11.781  0.00  0.00    +0.000 OA
ATOM    294  C5  U   B  50     -26.830  22.070 -13.698  0.00  0.00    +0.000 A 
ATOM    295  C6  U   B  50     -26.904  22.984 -14.675  0.00  0.00    +0.000 A 
ATOM    296  H   U   B  50     -24.195  23.294 -12.235  0.00  0.00    +0.000 HD
ENDBRANCH 287 288
BRANCH 286 297
ATOM    297  O2' U   B  50     -24.714  25.936 -17.600  0.00  0.00    +0.000 OA
ATOM    298  H   U   B  50     -25.488  26.460 -17.859  0.00  0.00    +0.000 HD
ENDBRANCH 286 297
BRANCH 285 299
ATOM    299  O3' U   B  50     -25.572  23.898 -19.304  0.00  0.00    +0.000 OA
BRANCH 299 300
ATOM    300  P   U   B  51     -24.660  22.677 -19.821  0.00  0.00    +0.000 P 
ATOM    301  OP1 U   B  51     -24.519  22.797 -21.289  0.00  0.00    +0.000 OA
BRANCH 300 302
ATOM    302  OP2 U   B  51     -25.188  21.418 -19.229  0.00  0.00    +0.000 OA
ATOM    303  H   U   B  51     -26.053  21.216 -19.618  0.00  0.00    +0.000 HD
ENDBRANCH 300 302
BRANCH 300 304
ATOM    304  O5' U   B  51     -23.240  22.975 -19.157  0.00  0.00    +0.000 OA
BRANCH 304 305
ATOM    305  C5' U   B  51     -22.504  24.147 -19.489  0.00  0.00    +0.000 C 
BRANCH 305 306
ATOM    306  C4' U   B  51     -21.376  24.387 -18.513  0.00  0.00    +0.000 C 
ATOM    307  O4' U   B  51     -21.906  24.487 -17.162  0.00  0.00    +0.000 OA
ATOM    308  C3' U   B  51     -20.336  23.291 -18.417  0.00  0.00    +0.000 C 
ATOM    309  C2' U   B  51     -19.731  23.541 -17.043  0.00  0.00    +0.000 C 
ATOM    310  C1' U   B  51     -20.968  23.965 -16.242  0.00  0.00    +0.000 C 
BRANCH 310 311
ATOM    311  N1  U   B  51     -21.589  22.835 -15.516  0.00  0.00    +0.000 N 
ATOM    312  C2  U   B  51     -21.000  22.442 -14.326  0.00  0.00    +0.000 A 
ATOM    313  O2  U   B  51     -20.007  22.979 -13.868  0.00  0.00    +0.000 OA
ATOM    314  N3  U   B  51     -21.616  21.393 -13.688  0.00  0.00    +0.000 N 
ATOM    315  C4  U   B  51     -22.737  20.710 -14.107  0.00  0.00    +0.000 A 
ATOM    316  O4  U   B  51     -23.173  19.787 -13.424  0.00  0.00    +0.000 OA
ATOM    317  C5  U   B  51     -23.287  21.176 -15.344  0.00  0.00    +0.000 A 
ATOM    318  C6  U   B  51     -22.710  22.196 -15.990  0.00  0.00    +0.000 A 
ATOM    319  H   U   B  51     -21.213  21.097 -12.840  0.00  0.00    +0.000 HD
ENDBRANCH 310 311
BRANCH 309 320
ATOM    320  O2' U   B  51     -18.811  24.616 -17.059  0.00  0.00    +0.000 OA
ATOM    321  H   U   B  51     -19.250  25.412 -17.397  0.00  0.00    +0.000 HD
ENDBRANCH 309 320
BRANCH 308 322
ATOM    322  O3' U   B  51     -19.382  23.351 -19.467  0.00  0.00    +0.000 OA
BRANCH 322 323
ATOM    323  P   U   B  52     -18.648  22.014 -19.988  0.00  0.00    +0.000 P 
ATOM    324  OP1 U   B  52     -17.908  22.348 -21.225  0.00  0.00    +0.000 OA
BRANCH 323 325
ATOM    325  OP2 U   B  52     -19.645  20.908 -20.003  0.00  0.00    +0.000 OA
ATOM    326  H   U   B  52     -20.303  21.075 -20.696  0.00  0.00    +0.000 HD
ENDBRANCH 323 325
BRANCH 323 327
ATOM    327  O5' U   B  52     -17.586  21.704 -18.839  0.00  0.00    +0.000 OA
BRANCH 327 328
ATOM    328  C5' U   B  52     -16.521  22.605 -18.557  0.00  0.00    +0.000 C 
BRANCH 328 329
ATOM    329  C4' U   B  52     -15.811  22.232 -17.279  0.00  0.00    +0.000 C 
ATOM    330  O4' U   B  52     -16.739  22.297 -16.160  0.00  0.00    +0.000 OA
ATOM    331  C3' U   B  52     -15.261  20.822 -17.217  0.00  0.00    +0.000 C 
ATOM    332  C2' U   B  52     -15.159  20.582 -15.716  0.00  0.00    +0.000 C 
ATOM    333  C1' U   B  52     -16.416  21.300 -15.213  0.00  0.00    +0.000 C 
BRANCH 333 334
ATOM    334  N1  U   B  52     -17.573  20.388 -15.071  0.00  0.00    +0.000 N 
ATOM    335  C2  U   B  52     -17.637  19.618 -13.921  0.00  0.00    +0.000 A 
ATOM    336  O2  U   B  52     -16.790  19.662 -13.045  0.00  0.00    +0.000 OA
ATOM    337  N3  U   B  52     -18.733  18.791 -13.836  0.00  0.00    +0.000 N 
ATOM    338  C4  U   B  52     -19.747  18.659 -14.760  0.00  0.00    +0.000 A 
ATOM    339  O4  U   B  52     -20.664  17.873 -14.542  0.00  0.00    +0.000 OA
ATOM    340  C5  U   B  52     -19.607  19.487 -15.919  0.00  0.00    +0.000 A 
ATOM    341  C6  U   B  52     -18.552  20.301 -16.030  0.00  0.00    +0.000 A 
ATOM    342  H   U   B  52     -18.800  18.233 -13.028  0.00  0.00    +0.000 HD
ENDBRANCH 333 334
BRANCH 332 343
ATOM    343  O2' U   B  52     -14.021  21.212 -15.159  0.00  0.00    +0.000 OA
ATOM    344  H   U   B  52     -14.044  22.160 -15.362  0.00  0.00    +0.000 HD
ENDBRANCH 332 343
BRANCH 331 345
ATOM    345  O3' U   B  52     -14.017  20.693 -17.893  0.00  0.00    +0.000 OA
BRANCH 345 346
ATOM    346  P   A   B  53     -13.613  19.303 -18.608  0.00  0.00    +0.000 P 
ATOM    347  OP1 A   B  53     -12.364  19.521 -19.378  0.00  0.00    +0.000 OA
BRANCH 346 348
ATOM    348  OP2 A   B  53     -14.818  18.765 -19.293  0.00  0.00    +0.000 OA
ATOM    349  H   A   B  53     -15.042  19.333 -20.047  0.00  0.00    +0.000 HD
ENDBRANCH 346 348
BRANCH 346 350
ATOM    350  O5' A   B  53     -13.278  18.343 -17.377  0.00  0.00    +0.000 OA
BRANCH 350 351
ATOM    351  C5' A   B  53     -12.153  18.597 -16.543  0.00  0.00    +0.000 C 
BRANCH 351 352
ATOM    352  C4' A   B  53     -12.164  17.704 -15.325  0.00  0.00    +0.000 C 
ATOM    353  O4' A   B  53     -13.341  17.984 -14.515  0.00  0.00    +0.000 OA
ATOM    354  C3' A   B  53     -12.258  16.216 -15.597  0.00  0.00    +0.000 C 
ATOM    355  C2' A   B  53     -12.804  15.687 -14.278  0.00  0.00    +0.000 C 
ATOM    356  C1' A   B  53     -13.785  16.796 -13.897  0.00  0.00    +0.000 C 
BRANCH 356 357
ATOM    357  N9  A   B  53     -15.151  16.505 -14.357  0.00  0.00    +0.000 N 
ATOM    358  C8  A   B  53     -15.791  16.970 -15.476  0.00  0.00    +0.000 A 
ATOM    359  N7  A   B  53     -17.015  16.523 -15.603  0.00  0.00    +0.000 NA
ATOM    360  C5  A   B  53     -17.197  15.709 -14.496  0.00  0.00    +0.000 A 
ATOM    361  C6  A   B  53     -18.282  14.942 -14.048  0.00  0.00    +0.000 A 
ATOM    362  N1  A   B  53     -18.131  14.245 -12.903  0.00  0.00    +0.000 NA
ATOM    363  C2  A   B  53     -16.964  14.319 -12.256  0.00  0.00    +0.000 A 
ATOM    364  N3  A   B  53     -15.868  15.008 -12.574  0.00  0.00    +0.000 NA
ATOM    365  C4  A   B  53     -16.052  15.689 -13.718  0.00  0.00    +0.000 A 
BRANCH 361 366
ATOM    366  N6  A   B  53     -19.450  14.868 -14.698  0.00  0.00    +0.000 N 
ATOM    367  H   A   B  53     -19.580  15.369 -15.535  0.00  0.00    +0.000 HD
ATOM    368  H   A   B  53     -20.179  14.312 -14.339  0.00  0.00    +0.000 HD
ENDBRANCH 361 366
ENDBRANCH 356 357
BRANCH 355 369
ATOM    369  O2' A   B  53     -11.796  15.610 -13.287  0.00  0.00    +0.000 OA
ATOM    370  H   A   B  53     -11.386  16.482 -13.175  0.00  0.00    +0.000 HD
ENDBRANCH 355 369
BRANCH 354 371
ATOM    371  O3' A   B  53     -11.009  15.647 -15.961  0.00  0.00    +0.000 OA
BRANCH 371 372
ATOM    372  P   A   B  54     -10.945  14.372 -16.946  0.00  0.00    +0.000 P 
ATOM    373  OP2 A   B  54     -11.965  14.549 -18.010  0.00  0.00    +0.000 OA
BRANCH 372 374
ATOM    374  OP1 A   B  54      -9.526  14.146 -17.314  0.00  0.00    +0.000 OA
ATOM    375  H   A   B  54      -9.464  13.382 -17.908  0.00  0.00    +0.000 HD
ENDBRANCH 372 374
BRANCH 372 376
ATOM    376  O5' A   B  54     -11.415  13.160 -16.015  0.00  0.00    +0.000 OA
BRANCH 376 377
ATOM    377  C5' A   B  54     -10.628  12.754 -14.901  0.00  0.00    +0.000 C 
BRANCH 377 378
ATOM    378  C4' A   B  54     -11.407  11.841 -13.982  0.00  0.00    +0.000 C 
ATOM    379  O4' A   B  54     -12.609  12.514 -13.516  0.00  0.00    +0.000 OA
ATOM    380  C3' A   B  54     -11.931  10.560 -14.601  0.00  0.00    +0.000 C 
ATOM    381  C2' A   B  54     -13.059  10.192 -13.651  0.00  0.00    +0.000 C 
ATOM    382  C1' A   B  54     -13.645  11.568 -13.340  0.00  0.00    +0.000 C 
BRANCH 382 383
ATOM    383  N9  A   B  54     -14.759  11.903 -14.240  0.00  0.00    +0.000 N 
ATOM    384  C8  A   B  54     -14.745  12.689 -15.364  0.00  0.00    +0.000 A 
ATOM    385  N7  A   B  54     -15.914  12.788 -15.950  0.00  0.00    +0.000 NA
ATOM    386  C5  A   B  54     -16.753  12.013 -15.161  0.00  0.00    +0.000 A 
ATOM    387  C6  A   B  54     -18.120  11.706 -15.245  0.00  0.00    +0.000 A 
ATOM    388  N1  A   B  54     -18.645  10.905 -14.298  0.00  0.00    +0.000 NA
ATOM    389  C2  A   B  54     -17.843  10.442 -13.333  0.00  0.00    +0.000 A 
ATOM    390  N3  A   B  54     -16.543  10.659 -13.143  0.00  0.00    +0.000 NA
ATOM    391  C4  A   B  54     -16.052  11.461 -14.105  0.00  0.00    +0.000 A 
BRANCH 387 392
ATOM    392  N6  A   B  54     -18.919  12.168 -16.213  0.00  0.00    +0.000 N 
ATOM    393  H   A   B  54     -18.554  12.755 -16.914  0.00  0.00    +0.000 HD
ATOM    394  H   A   B  54     -19.872  11.921 -16.224  0.00  0.00    +0.000 HD
ENDBRANCH 387 392
ENDBRANCH 382 383
BRANCH 381 395
ATOM    395  O2' A   B  54     -12.573   9.620 -12.450  0.00  0.00    +0.000 OA
ATOM    396  H   A   B  54     -11.948  10.232 -12.031  0.00  0.00    +0.000 HD
ENDBRANCH 381 395
BRANCH 380 397
ATOM    397  O3' A   B  54     -10.935   9.550 -14.710  0.00  0.00    +0.000 OA
BRANCH 397 398
ATOM    398  P   A   B  55     -11.015   8.457 -15.891  0.00  0.00    +0.000 P 
ATOM    399  OP2 A   B  55     -11.450   9.129 -17.140  0.00  0.00    +0.000 OA
BRANCH 398 400
ATOM    400  OP1 A   B  55      -9.750   7.682 -15.876  0.00  0.00    +0.000 OA
ATOM    401  H   A   B  55      -9.771   7.015 -16.580  0.00  0.00    +0.000 HD
ENDBRANCH 398 400
BRANCH 398 402
ATOM    402  O5' A   B  55     -12.195   7.490 -15.419  0.00  0.00    +0.000 OA
BRANCH 402 403
ATOM    403  C5' A   B  55     -12.067   6.712 -14.233  0.00  0.00    +0.000 C 
BRANCH 403 404
ATOM    404  C4' A   B  55     -13.400   6.137 -13.811  0.00  0.00    +0.000 C 
ATOM    405  O4' A   B  55     -14.366   7.206 -13.630  0.00  0.00    +0.000 OA
ATOM    406  C3' A   B  55     -14.069   5.208 -14.804  0.00  0.00    +0.000 C 
ATOM    407  C2' A   B  55     -15.524   5.273 -14.363  0.00  0.00    +0.000 C 
ATOM    408  C1' A   B  55     -15.657   6.748 -13.982  0.00  0.00    +0.000 C 
BRANCH 408 409
ATOM    409  N9  A   B  55     -16.167   7.558 -15.098  0.00  0.00    +0.000 N 
ATOM    410  C8  A   B  55     -15.466   8.373 -15.949  0.00  0.00    +0.000 A 
ATOM    411  N7  A   B  55     -16.219   8.964 -16.846  0.00  0.00    +0.000 NA
ATOM    412  C5  A   B  55     -17.498   8.506 -16.568  0.00  0.00    +0.000 A 
ATOM    413  C6  A   B  55     -18.745   8.760 -17.158  0.00  0.00    +0.000 A 
ATOM    414  N1  A   B  55     -19.824   8.143 -16.640  0.00  0.00    +0.000 NA
ATOM    415  C2  A   B  55     -19.656   7.326 -15.597  0.00  0.00    +0.000 A 
ATOM    416  N3  A   B  55     -18.536   7.008 -14.951  0.00  0.00    +0.000 NA
ATOM    417  C4  A   B  55     -17.480   7.640 -15.493  0.00  0.00    +0.000 A 
BRANCH 413 418
ATOM    418  N6  A   B  55     -18.910   9.578 -18.204  0.00  0.00    +0.000 N 
ATOM    419  H   A   B  55     -19.809   9.721 -18.580  0.00  0.00    +0.000 HD
ATOM    420  H   A   B  55     -18.133  10.037 -18.598  0.00  0.00    +0.000 HD
ENDBRANCH 413 418
ENDBRANCH 408 409
BRANCH 407 421
ATOM    421  O2' A   B  55     -15.763   4.482 -13.212  0.00  0.00    +0.000 OA
ATOM    422  H   A   B  55     -15.169   4.762 -12.498  0.00  0.00    +0.000 HD
ENDBRANCH 407 421
BRANCH 406 423
ATOM    423  O3' A   B  55     -13.532   3.892 -14.776  0.00  0.00    +0.000 OA
BRANCH 423 424
ATOM    424  P   A   B  56     -13.539   2.979 -16.112  0.00  0.00    +0.000 P 
ATOM    425  OP2 A   B  56     -13.208   3.832 -17.276  0.00  0.00    +0.000 OA
BRANCH 424 426
ATOM    426  OP1 A   B  56     -12.730   1.769 -15.832  0.00  0.00    +0.000 OA
ATOM    427  H   A   B  56     -12.716   1.200 -16.618  0.00  0.00    +0.000 HD
ENDBRANCH 424 426
BRANCH 424 428
ATOM    428  O5' A   B  56     -15.064   2.538 -16.248  0.00  0.00    +0.000 OA
BRANCH 428 429
ATOM    429  C5' A   B  56     -15.688   1.744 -15.241  0.00  0.00    +0.000 C 
BRANCH 429 430
ATOM    430  C4' A   B  56     -17.185   1.699 -15.436  0.00  0.00    +0.000 C 
ATOM    431  O4' A   B  56     -17.723   3.050 -15.427  0.00  0.00    +0.000 OA
ATOM    432  C3' A   B  56     -17.663   1.120 -16.752  0.00  0.00    +0.000 C 
ATOM    433  C2' A   B  56     -19.046   1.739 -16.898  0.00  0.00    +0.000 C 
ATOM    434  C1' A   B  56     -18.825   3.137 -16.311  0.00  0.00    +0.000 C 
BRANCH 434 435
ATOM    435  N9  A   B  56     -18.528   4.148 -17.335  0.00  0.00    +0.000 N 
ATOM    436  C8  A   B  56     -17.308   4.655 -17.695  0.00  0.00    +0.000 A 
ATOM    437  N7  A   B  56     -17.375   5.562 -18.644  0.00  0.00    +0.000 NA
ATOM    438  C5  A   B  56     -18.728   5.654 -18.925  0.00  0.00    +0.000 A 
ATOM    439  C6  A   B  56     -19.456   6.439 -19.833  0.00  0.00    +0.000 A 
ATOM    440  N1  A   B  56     -20.792   6.291 -19.863  0.00  0.00    +0.000 NA
ATOM    441  C2  A   B  56     -21.359   5.409 -19.031  0.00  0.00    +0.000 A 
ATOM    442  N3  A   B  56     -20.784   4.617 -18.129  0.00  0.00    +0.000 NA
ATOM    443  C4  A   B  56     -19.450   4.790 -18.127  0.00  0.00    +0.000 A 
BRANCH 439 444
ATOM    444  N6  A   B  56     -18.885   7.320 -20.668  0.00  0.00    +0.000 N 
ATOM    445  H   A   B  56     -19.443   7.846 -21.286  0.00  0.00    +0.000 HD
ATOM    446  H   A   B  56     -17.908   7.441 -20.663  0.00  0.00    +0.000 HD
ENDBRANCH 439 444
ENDBRANCH 434 435
BRANCH 433 447
ATOM    447  O2' A   B  56     -20.014   1.062 -16.113  0.00  0.00    +0.000 OA
ATOM    448  H   A   B  56     -19.733   1.059 -15.185  0.00  0.00    +0.000 HD
ENDBRANCH 433 447
BRANCH 432 449
ATOM    449  O3' A   B  56     -17.684  -0.304 -16.733  0.00  0.00    +0.000 OA
BRANCH 449 450
ATOM    450  P   A   B  57     -17.317  -1.160 -18.055  0.00  0.00    +0.000 P 
ATOM    451  OP2 A   B  57     -16.215  -0.463 -18.767  0.00  0.00    +0.000 OA
BRANCH 450 452
ATOM    452  OP1 A   B  57     -17.148  -2.573 -17.648  0.00  0.00    +0.000 OA
ATOM    453  H   A   B  57     -16.927  -3.109 -18.425  0.00  0.00    +0.000 HD
ENDBRANCH 450 452
BRANCH 450 454
ATOM    454  O5' A   B  57     -18.632  -1.050 -18.953  0.00  0.00    +0.000 OA
BRANCH 454 455
ATOM    455  C5' A   B  57     -19.865  -1.616 -18.514  0.00  0.00    +0.000 C 
BRANCH 455 456
ATOM    456  C4' A   B  57     -21.008  -1.165 -19.396  0.00  0.00    +0.000 C 
ATOM    457  O4' A   B  57     -21.091   0.288 -19.360  0.00  0.00    +0.000 OA
ATOM    458  C3' A   B  57     -20.878  -1.505 -20.864  0.00  0.00    +0.000 C 
ATOM    459  C2' A   B  57     -21.704  -0.421 -21.545  0.00  0.00    +0.000 C 
ATOM    460  C1' A   B  57     -21.517   0.782 -20.611  0.00  0.00    +0.000 C 
BRANCH 460 461
ATOM    461  N9  A   B  57     -20.531   1.761 -21.091  0.00  0.00    +0.000 N 
ATOM    462  C8  A   B  57     -19.181   1.790 -20.858  0.00  0.00    +0.000 A 
ATOM    463  N7  A   B  57     -18.576   2.809 -21.424  0.00  0.00    +0.000 NA
ATOM    464  C5  A   B  57     -19.597   3.493 -22.068  0.00  0.00    +0.000 A 
ATOM    465  C6  A   B  57     -19.613   4.664 -22.845  0.00  0.00    +0.000 A 
ATOM    466  N1  A   B  57     -20.798   5.072 -23.336  0.00  0.00    +0.000 NA
ATOM    467  C2  A   B  57     -21.890   4.355 -23.062  0.00  0.00    +0.000 A 
ATOM    468  N3  A   B  57     -22.004   3.241 -22.341  0.00  0.00    +0.000 NA
ATOM    469  C4  A   B  57     -20.807   2.857 -21.868  0.00  0.00    +0.000 A 
BRANCH 465 470
ATOM    470  N6  A   B  57     -18.514   5.382 -23.123  0.00  0.00    +0.000 N 
ATOM    471  H   A   B  57     -18.584   6.195 -23.673  0.00  0.00    +0.000 HD
ATOM    472  H   A   B  57     -17.638   5.095 -22.777  0.00  0.00    +0.000 HD
ENDBRANCH 465 470
ENDBRANCH 460 461
BRANCH 459 473
ATOM    473  O2' A   B  57     -23.085  -0.756 -21.590  0.00  0.00    +0.000 OA
ATOM    474  H   A   B  57     -23.409  -0.913 -20.689  0.00  0.00    +0.000 HD
ENDBRANCH 459 473
BRANCH 458 475
ATOM    475  O3' A   B  57     -21.375  -2.815 -21.154  0.00  0.00    +0.000 OA
BRANCH 475 476
ATOM    476  P   C   B  58     -20.474  -4.136 -20.988  0.00  0.00    +0.000 P 
ATOM    477  OP1 C   B  58     -21.382  -5.207 -20.508  0.00  0.00    +0.000 OA
BRANCH 476 478
ATOM    478  OP2 C   B  58     -19.261  -3.792 -20.201  0.00  0.00    +0.000 OA
ATOM    479  H   C   B  58     -18.778  -3.078 -20.646  0.00  0.00    +0.000 HD
ENDBRANCH 476 478
BRANCH 476 480
ATOM    480  O5' C   B  58     -20.007  -4.513 -22.457  0.00  0.00    +0.000 OA
BRANCH 480 481
ATOM    481  C5' C   B  58     -20.896  -5.135 -23.384  0.00  0.00    +0.000 C 
BRANCH 481 482
ATOM    482  C4' C   B  58     -20.279  -5.169 -24.761  0.00  0.00    +0.000 C 
ATOM    483  O4' C   B  58     -20.054  -3.809 -25.212  0.00  0.00    +0.000 OA
ATOM    484  C3' C   B  58     -18.919  -5.832 -24.845  0.00  0.00    +0.000 C 
ATOM    485  C2' C   B  58     -18.290  -5.157 -26.057  0.00  0.00    +0.000 C 
ATOM    486  C1' C   B  58     -18.841  -3.732 -25.932  0.00  0.00    +0.000 C 
BRANCH 486 487
ATOM    487  N1  C   B  58     -17.941  -2.812 -25.205  0.00  0.00    +0.000 N 
ATOM    488  C2  C   B  58     -16.887  -2.207 -25.897  0.00  0.00    +0.000 A 
ATOM    489  O2  C   B  58     -16.730  -2.465 -27.104  0.00  0.00    +0.000 OA
ATOM    490  N3  C   B  58     -16.062  -1.357 -25.242  0.00  0.00    +0.000 NA
ATOM    491  C4  C   B  58     -16.256  -1.099 -23.949  0.00  0.00    +0.000 A 
ATOM    492  N4  C   B  58     -15.417  -0.254 -23.342  0.00  0.00    +0.000 N 
ATOM    493  C5  C   B  58     -17.319  -1.697 -23.220  0.00  0.00    +0.000 A 
ATOM    494  C6  C   B  58     -18.127  -2.537 -23.880  0.00  0.00    +0.000 A 
ATOM    495  H   C   B  58     -14.681   0.159 -23.850  0.00  0.00    +0.000 HD
ATOM    496  H   C   B  58     -15.535  -0.044 -22.387  0.00  0.00    +0.000 HD
ENDBRANCH 486 487
BRANCH 485 497
ATOM    497  O2' C   B  58     -18.748  -5.725 -27.272  0.00  0.00    +0.000 OA
ATOM    498  H   C   B  58     -19.716  -5.675 -27.307  0.00  0.00    +0.000 HD
ENDBRANCH 485 497
BRANCH 484 499
ATOM    499  O3' C   B  58     -19.020  -7.248 -24.981  0.00  0.00    +0.000 OA
BRANCH 499 500
ATOM    500  P   A   B  59     -18.101  -8.263 -24.108  0.00  0.00    +0.000 P 
ATOM    501  OP1 A   B  59     -18.692  -9.622 -24.158  0.00  0.00    +0.000 OA
BRANCH 500 502
ATOM    502  OP2 A   B  59     -17.856  -7.620 -22.796  0.00  0.00    +0.000 OA
ATOM    503  H   A   B  59     -17.469  -6.741 -22.934  0.00  0.00    +0.000 HD
ENDBRANCH 500 502
BRANCH 500 504
ATOM    504  O5' A   B  59     -16.721  -8.298 -24.907  0.00  0.00    +0.000 OA
BRANCH 504 505
ATOM    505  C5' A   B  59     -16.619  -8.958 -26.164  0.00  0.00    +0.000 C 
BRANCH 505 506
ATOM    506  C4' A   B  59     -15.347  -8.565 -26.879  0.00  0.00    +0.000 C 
ATOM    507  O4' A   B  59     -15.340  -7.131 -27.096  0.00  0.00    +0.000 OA
ATOM    508  C3' A   B  59     -14.057  -8.832 -26.128  0.00  0.00    +0.000 C 
ATOM    509  C2' A   B  59     -13.102  -7.833 -26.758  0.00  0.00    +0.000 C 
ATOM    510  C1' A   B  59     -14.025  -6.634 -26.974  0.00  0.00    +0.000 C 
BRANCH 510 511
ATOM    511  N9  A   B  59     -13.986  -5.687 -25.850  0.00  0.00    +0.000 N 
ATOM    512  C8  A   B  59     -14.865  -5.586 -24.805  0.00  0.00    +0.000 A 
ATOM    513  N7  A   B  59     -14.566  -4.632 -23.955  0.00  0.00    +0.000 NA
ATOM    514  C5  A   B  59     -13.412  -4.069 -24.480  0.00  0.00    +0.000 A 
ATOM    515  C6  A   B  59     -12.596  -3.010 -24.050  0.00  0.00    +0.000 A 
ATOM    516  N6  A   B  59     -12.829  -2.303 -22.934  0.00  0.00    +0.000 N 
ATOM    517  N1  A   B  59     -11.522  -2.702 -24.801  0.00  0.00    +0.000 NA
ATOM    518  C2  A   B  59     -11.291  -3.410 -25.910  0.00  0.00    +0.000 A 
ATOM    519  N3  A   B  59     -11.985  -4.424 -26.421  0.00  0.00    +0.000 NA
ATOM    520  C4  A   B  59     -13.047  -4.709 -25.647  0.00  0.00    +0.000 A 
ATOM    521  H   A   B  59     -12.223  -1.570 -22.680  0.00  0.00    +0.000 HD
ATOM    522  H   A   B  59     -13.606  -2.517 -22.369  0.00  0.00    +0.000 HD
ENDBRANCH 510 511
BRANCH 509 523
ATOM    523  O2' A   B  59     -12.620  -8.274 -28.018  0.00  0.00    +0.000 OA
ATOM    524  H   A   B  59     -13.370  -8.453 -28.606  0.00  0.00    +0.000 HD
ENDBRANCH 509 523
BRANCH 508 525
ATOM    525  O3' A   B  59     -13.620 -10.181 -26.254  0.00  0.00    +0.000 OA
BRANCH 525 526
ATOM    526  P   G   B  60     -12.838 -10.923 -25.052  0.00  0.00    +0.000 P 
ATOM    527  OP1 G   B  60     -12.686 -12.354 -25.401  0.00  0.00    +0.000 OA
BRANCH 526 528
ATOM    528  OP2 G   B  60     -13.489 -10.546 -23.770  0.00  0.00    +0.000 OA
ATOM    529  H   G   B  60     -14.372 -10.945 -23.726  0.00  0.00    +0.000 HD
ENDBRANCH 526 528
BRANCH 526 530
ATOM    530  O5' G   B  60     -11.391 -10.251 -25.092  0.00  0.00    +0.000 OA
BRANCH 530 531
ATOM    531  C5' G   B  60     -10.498 -10.491 -26.173  0.00  0.00    +0.000 C 
BRANCH 531 532
ATOM    532  C4' G   B  60      -9.377  -9.474 -26.198  0.00  0.00    +0.000 C 
ATOM    533  O4' G   B  60      -9.936  -8.135 -26.226  0.00  0.00    +0.000 OA
ATOM    534  C3' G   B  60      -8.458  -9.463 -24.993  0.00  0.00    +0.000 C 
ATOM    535  C2' G   B  60      -7.893  -8.054 -25.038  0.00  0.00    +0.000 C 
ATOM    536  C1' G   B  60      -9.111  -7.255 -25.495  0.00  0.00    +0.000 C 
BRANCH 536 537
ATOM    537  N9  G   B  60      -9.879  -6.716 -24.360  0.00  0.00    +0.000 N 
ATOM    538  C8  G   B  60     -11.033  -7.223 -23.815  0.00  0.00    +0.000 A 
ATOM    539  N7  G   B  60     -11.476  -6.519 -22.810  0.00  0.00    +0.000 NA
ATOM    540  C5  G   B  60     -10.563  -5.484 -22.686  0.00  0.00    +0.000 A 
ATOM    541  C6  G   B  60     -10.519  -4.402 -21.771  0.00  0.00    +0.000 A 
ATOM    542  O6  G   B  60     -11.310  -4.137 -20.853  0.00  0.00    +0.000 OA
ATOM    543  N1  G   B  60      -9.422  -3.585 -21.994  0.00  0.00    +0.000 NA
ATOM    544  C2  G   B  60      -8.486  -3.780 -22.976  0.00  0.00    +0.000 A 
ATOM    545  N2  G   B  60      -7.493  -2.879 -23.037  0.00  0.00    +0.000 N 
ATOM    546  N3  G   B  60      -8.511  -4.781 -23.837  0.00  0.00    +0.000 N 
ATOM    547  C4  G   B  60      -9.573  -5.591 -23.636  0.00  0.00    +0.000 A 
ATOM    548  H   G   B  60      -6.791  -2.966 -23.721  0.00  0.00    +0.000 HD
ATOM    549  H   G   B  60      -7.467  -2.131 -22.397  0.00  0.00    +0.000 HD
ATOM    550  H   G   B  60      -7.837  -4.920 -24.541  0.00  0.00    +0.000 HD
ENDBRANCH 536 537
BRANCH 535 551
ATOM    551  O2' G   B  60      -6.866  -7.921 -26.011  0.00  0.00    +0.000 OA
ATOM    552  H   G   B  60      -7.208  -8.184 -26.880  0.00  0.00    +0.000 HD
ENDBRANCH 535 551
BRANCH 534 553
ATOM    553  O3' G   B  60      -7.457 -10.473 -25.055  0.00  0.00    +0.000 OA
BRANCH 553 554
ATOM    554  P   A   B  61      -6.876 -11.144 -23.716  0.00  0.00    +0.000 P 
ATOM    555  OP1 A   B  61      -5.971 -12.255 -24.096  0.00  0.00    +0.000 OA
BRANCH 554 556
ATOM    556  OP2 A   B  61      -8.018 -11.404 -22.800  0.00  0.00    +0.000 OA
ATOM    557  H   A   B  61      -8.574 -12.108 -23.169  0.00  0.00    +0.000 HD
ENDBRANCH 554 556
BRANCH 554 558
ATOM    558  O5' A   B  61      -5.986  -9.981 -23.074  0.00  0.00    +0.000 OA
BRANCH 558 559
ATOM    559  C5' A   B  61      -4.794  -9.538 -23.713  0.00  0.00    +0.000 C 
BRANCH 559 560
ATOM    560  C4' A   B  61      -4.314  -8.228 -23.127  0.00  0.00    +0.000 C 
ATOM    561  O4' A   B  61      -5.365  -7.232 -23.225  0.00  0.00    +0.000 OA
ATOM    562  C3' A   B  61      -3.967  -8.245 -21.651  0.00  0.00    +0.000 C 
ATOM    563  C2' A   B  61      -4.103  -6.779 -21.277  0.00  0.00    +0.000 C 
ATOM    564  C1' A   B  61      -5.320  -6.375 -22.100  0.00  0.00    +0.000 C 
BRANCH 564 565
ATOM    565  N9  A   B  61      -6.569  -6.530 -21.338  0.00  0.00    +0.000 N 
ATOM    566  C8  A   B  61      -7.479  -7.551 -21.412  0.00  0.00    +0.000 A 
ATOM    567  N7  A   B  61      -8.495  -7.411 -20.596  0.00  0.00    +0.000 NA
ATOM    568  C5  A   B  61      -8.237  -6.216 -19.942  0.00  0.00    +0.000 A 
ATOM    569  C6  A   B  61      -8.937  -5.505 -18.954  0.00  0.00    +0.000 A 
ATOM    570  N6  A   B  61     -10.091  -5.924 -18.425  0.00  0.00    +0.000 N 
ATOM    571  N1  A   B  61      -8.404  -4.346 -18.518  0.00  0.00    +0.000 NA
ATOM    572  C2  A   B  61      -7.247  -3.934 -19.048  0.00  0.00    +0.000 A 
ATOM    573  N3  A   B  61      -6.497  -4.511 -19.980  0.00  0.00    +0.000 NA
ATOM    574  C4  A   B  61      -7.054  -5.663 -20.392  0.00  0.00    +0.000 A 
ATOM    575  H   A   B  61     -10.495  -6.768 -18.731  0.00  0.00    +0.000 HD
ATOM    576  H   A   B  61     -10.537  -5.389 -17.729  0.00  0.00    +0.000 HD
ENDBRANCH 564 565
BRANCH 563 577
ATOM    577  O2' A   B  61      -2.987  -6.015 -21.708  0.00  0.00    +0.000 OA
ATOM    578  H   A   B  61      -2.873  -6.121 -22.665  0.00  0.00    +0.000 HD
ENDBRANCH 563 577
BRANCH 562 579
ATOM    579  O3' A   B  61      -2.676  -8.776 -21.391  0.00  0.00    +0.000 OA
BRANCH 579 580
ATOM    580  P   C   B  62      -2.390  -9.608 -20.058  0.00  0.00    +0.000 P 
ATOM    581  OP1 C   B  62      -1.032 -10.193 -20.147  0.00  0.00    +0.000 OA
BRANCH 580 582
ATOM    582  OP2 C   B  62      -3.558 -10.493 -19.802  0.00  0.00    +0.000 OA
ATOM    583  H   C   B  62      -3.590 -11.190 -20.476  0.00  0.00    +0.000 HD
ENDBRANCH 580 582
BRANCH 580 584
ATOM    584  O5' C   B  62      -2.372  -8.477 -18.931  0.00  0.00    +0.000 OA
BRANCH 584 585
ATOM    585  C5' C   B  62      -1.409  -7.435 -18.950  0.00  0.00    +0.000 C 
BRANCH 585 586
ATOM    586  C4' C   B  62      -1.815  -6.290 -18.052  0.00  0.00    +0.000 C 
ATOM    587  O4' C   B  62      -3.137  -5.818 -18.420  0.00  0.00    +0.000 OA
ATOM    588  C3' C   B  62      -1.942  -6.610 -16.577  0.00  0.00    +0.000 C 
ATOM    589  C2' C   B  62      -2.862  -5.498 -16.081  0.00  0.00    +0.000 C 
ATOM    590  C1' C   B  62      -3.821  -5.357 -17.267  0.00  0.00    +0.000 C 
BRANCH 590 591
ATOM    591  N1  C   B  62      -5.057  -6.152 -17.092  0.00  0.00    +0.000 N 
ATOM    592  C2  C   B  62      -6.074  -5.641 -16.279  0.00  0.00    +0.000 A 
ATOM    593  O2  C   B  62      -5.907  -4.540 -15.730  0.00  0.00    +0.000 OA
ATOM    594  N3  C   B  62      -7.210  -6.357 -16.106  0.00  0.00    +0.000 NA
ATOM    595  C4  C   B  62      -7.356  -7.536 -16.713  0.00  0.00    +0.000 A 
ATOM    596  N4  C   B  62      -8.494  -8.206 -16.510  0.00  0.00    +0.000 N 
ATOM    597  C5  C   B  62      -6.341  -8.076 -17.553  0.00  0.00    +0.000 A 
ATOM    598  C6  C   B  62      -5.224  -7.359 -17.713  0.00  0.00    +0.000 A 
ATOM    599  H   C   B  62      -8.635  -9.079 -16.942  0.00  0.00    +0.000 HD
ATOM    600  H   C   B  62      -9.192  -7.827 -15.928  0.00  0.00    +0.000 HD
ENDBRANCH 590 591
BRANCH 589 601
ATOM    601  O2' C   B  62      -2.170  -4.281 -15.902  0.00  0.00    +0.000 OA
ATOM    602  H   C   B  62      -1.736  -4.031 -16.732  0.00  0.00    +0.000 HD
ENDBRANCH 589 601
BRANCH 588 603
ATOM    603  O3' C   B  62      -0.683  -6.629 -15.914  0.00  0.00    +0.000 OA
BRANCH 603 604
ATOM    604  P   U   B  63      -0.388  -7.665 -14.730  0.00  0.00    +0.000 P 
ATOM    605  OP2 U   B  63      -1.031  -8.963 -15.061  0.00  0.00    +0.000 OA
BRANCH 604 606
ATOM    606  OP1 U   B  63       1.060  -7.627 -14.423  0.00  0.00    +0.000 OA
ATOM    607  H   U   B  63       1.557  -8.011 -15.162  0.00  0.00    +0.000 HD
ENDBRANCH 604 606
BRANCH 604 608
ATOM    608  O5' U   B  63      -1.167  -7.027 -13.493  0.00  0.00    +0.000 OA
BRANCH 608 609
ATOM    609  C5' U   B  63      -0.806  -5.759 -12.969  0.00  0.00    +0.000 C 
BRANCH 609 610
ATOM    610  C4' U   B  63      -1.882  -5.202 -12.071  0.00  0.00    +0.000 C 
ATOM    611  O4' U   B  63      -3.118  -5.057 -12.820  0.00  0.00    +0.000 OA
ATOM    612  C3' U   B  63      -2.270  -6.063 -10.887  0.00  0.00    +0.000 C 
ATOM    613  C2' U   B  63      -3.673  -5.549 -10.569  0.00  0.00    +0.000 C 
ATOM    614  C1' U   B  63      -4.224  -5.298 -11.971  0.00  0.00    +0.000 C 
BRANCH 614 615
ATOM    615  N1  U   B  63      -4.985  -6.458 -12.492  0.00  0.00    +0.000 N 
ATOM    616  C2  U   B  63      -6.297  -6.606 -12.074  0.00  0.00    +0.000 A 
ATOM    617  O2  U   B  63      -6.838  -5.831 -11.309  0.00  0.00    +0.000 OA
ATOM    618  N3  U   B  63      -6.955  -7.700 -12.590  0.00  0.00    +0.000 N 
ATOM    619  C4  U   B  63      -6.446  -8.638 -13.459  0.00  0.00    +0.000 A 
ATOM    620  O4  U   B  63      -7.161  -9.567 -13.835  0.00  0.00    +0.000 OA
ATOM    621  C5  U   B  63      -5.088  -8.414 -13.848  0.00  0.00    +0.000 A 
ATOM    622  C6  U   B  63      -4.422  -7.357 -13.362  0.00  0.00    +0.000 A 
ATOM    623  H   U   B  63      -7.890  -7.825 -12.307  0.00  0.00    +0.000 HD
ENDBRANCH 614 615
BRANCH 613 624
ATOM    624  O2' U   B  63      -3.639  -4.329  -9.864  0.00  0.00    +0.000 OA
ATOM    625  H   U   B  63      -3.135  -3.675 -10.373  0.00  0.00    +0.000 HD
ENDBRANCH 613 624
BRANCH 612 626
ATOM    626  O3' U   B  63      -1.364  -5.945  -9.797  0.00  0.00    +0.000 OA
BRANCH 626 627
ATOM    627  P   A   B  64      -1.032  -7.203  -8.872  0.00  0.00    +0.000 P 
ATOM    628  OP2 A   B  64      -0.831  -8.395  -9.737  0.00  0.00    +0.000 OA
BRANCH 627 629
ATOM    629  OP1 A   B  64       0.025  -6.809  -7.906  0.00  0.00    +0.000 OA
ATOM    630  H   A   B  64       0.862  -6.678  -8.378  0.00  0.00    +0.000 HD
ENDBRANCH 627 629
BRANCH 627 631
ATOM    631  O5' A   B  64      -2.384  -7.407  -8.059  0.00  0.00    +0.000 OA
BRANCH 631 632
ATOM    632  C5' A   B  64      -2.864  -6.416  -7.163  0.00  0.00    +0.000 C 
BRANCH 632 633
ATOM    633  C4' A   B  64      -4.301  -6.674  -6.777  0.00  0.00    +0.000 C 
ATOM    634  O4' A   B  64      -5.133  -6.673  -7.964  0.00  0.00    +0.000 OA
ATOM    635  C3' A   B  64      -4.580  -8.019  -6.131  0.00  0.00    +0.000 C 
ATOM    636  C2' A   B  64      -6.064  -8.200  -6.412  0.00  0.00    +0.000 C 
ATOM    637  C1' A   B  64      -6.175  -7.618  -7.817  0.00  0.00    +0.000 C 
BRANCH 637 638
ATOM    638  N9  A   B  64      -6.021  -8.653  -8.853  0.00  0.00    +0.000 N 
ATOM    639  C8  A   B  64      -4.926  -8.906  -9.638  0.00  0.00    +0.000 A 
ATOM    640  N7  A   B  64      -5.095  -9.899 -10.476  0.00  0.00    +0.000 NA
ATOM    641  C5  A   B  64      -6.386 -10.334 -10.227  0.00  0.00    +0.000 A 
ATOM    642  C6  A   B  64      -7.165 -11.360 -10.784  0.00  0.00    +0.000 A 
ATOM    643  N1  A   B  64      -8.414 -11.526 -10.308  0.00  0.00    +0.000 NA
ATOM    644  C2  A   B  64      -8.845 -10.714  -9.341  0.00  0.00    +0.000 A 
ATOM    645  N3  A   B  64      -8.209  -9.712  -8.736  0.00  0.00    +0.000 NA
ATOM    646  C4  A   B  64      -6.969  -9.575  -9.230  0.00  0.00    +0.000 A 
BRANCH 642 647
ATOM    647  N6  A   B  64      -6.731 -12.173 -11.752  0.00  0.00    +0.000 N 
ATOM    648  H   A   B  64      -7.322 -12.877 -12.106  0.00  0.00    +0.000 HD
ATOM    649  H   A   B  64      -5.820 -12.068 -12.111  0.00  0.00    +0.000 HD
ENDBRANCH 642 647
ENDBRANCH 637 638
BRANCH 636 650
ATOM    650  O2' A   B  64      -6.865  -7.432  -5.535  0.00  0.00    +0.000 OA
ATOM    651  H   A   B  64      -6.609  -6.498  -5.598  0.00  0.00    +0.000 HD
ENDBRANCH 636 650
BRANCH 635 652
ATOM    652  O3' A   B  64      -4.257  -8.042  -4.749  0.00  0.00    +0.000 OA
BRANCH 652 653
ATOM    653  P   C   B  65      -3.686  -9.361  -4.057  0.00  0.00    +0.000 P 
ATOM    654  OP2 C   B  65      -2.792 -10.065  -5.011  0.00  0.00    +0.000 OA
BRANCH 653 655
ATOM    655  OP1 C   B  65      -3.181  -8.993  -2.710  0.00  0.00    +0.000 OA
ATOM    656  H   C   B  65      -2.381  -8.452  -2.801  0.00  0.00    +0.000 HD
ENDBRANCH 653 655
BRANCH 653 657
ATOM    657  O5' C   B  65      -4.996 -10.245  -3.865  0.00  0.00    +0.000 OA
BRANCH 657 658
ATOM    658  C5' C   B  65      -6.101  -9.780  -3.103  0.00  0.00    +0.000 C 
BRANCH 658 659
ATOM    659  C4' C   B  65      -7.337 -10.593  -3.383  0.00  0.00    +0.000 C 
ATOM    660  O4' C   B  65      -7.662 -10.522  -4.800  0.00  0.00    +0.000 OA
ATOM    661  C3' C   B  65      -7.234 -12.077  -3.100  0.00  0.00    +0.000 C 
ATOM    662  C2' C   B  65      -8.345 -12.644  -3.981  0.00  0.00    +0.000 C 
ATOM    663  C1' C   B  65      -8.241 -11.742  -5.216  0.00  0.00    +0.000 C 
BRANCH 663 664
ATOM    664  N1  C   B  65      -7.401 -12.334  -6.281  0.00  0.00    +0.000 N 
ATOM    665  C2  C   B  65      -7.952 -13.325  -7.106  0.00  0.00    +0.000 A 
ATOM    666  O2  C   B  65      -9.127 -13.677  -6.919  0.00  0.00    +0.000 OA
ATOM    667  N3  C   B  65      -7.198 -13.874  -8.090  0.00  0.00    +0.000 NA
ATOM    668  C4  C   B  65      -5.937 -13.472  -8.269  0.00  0.00    +0.000 A 
ATOM    669  N4  C   B  65      -5.230 -14.041  -9.250  0.00  0.00    +0.000 N 
ATOM    670  C5  C   B  65      -5.350 -12.467  -7.448  0.00  0.00    +0.000 A 
ATOM    671  C6  C   B  65      -6.108 -11.928  -6.478  0.00  0.00    +0.000 A 
ATOM    672  H   C   B  65      -5.641 -14.735  -9.814  0.00  0.00    +0.000 HD
ATOM    673  H   C   B  65      -4.298 -13.766  -9.408  0.00  0.00    +0.000 HD
ENDBRANCH 663 664
BRANCH 662 674
ATOM    674  O2' C   B  65      -9.617 -12.478  -3.391  0.00  0.00    +0.000 OA
ATOM    675  H   C   B  65      -9.765 -11.538  -3.201  0.00  0.00    +0.000 HD
ENDBRANCH 662 674
BRANCH 661 676
ATOM    676  O3' C   B  65      -7.390 -12.388  -1.720  0.00  0.00    +0.000 OA
BRANCH 676 677
ATOM    677  P   A   B  66      -6.594 -13.605  -1.050  0.00  0.00    +0.000 P 
ATOM    678  OP2 A   B  66      -5.220 -13.625  -1.609  0.00  0.00    +0.000 OA
BRANCH 677 679
ATOM    679  OP1 A   B  66      -6.791 -13.536   0.420  0.00  0.00    +0.000 OA
ATOM    680  H   A   B  66      -6.329 -12.759   0.772  0.00  0.00    +0.000 HD
ENDBRANCH 677 679
BRANCH 677 681
ATOM    681  O5' A   B  66      -7.364 -14.888  -1.592  0.00  0.00    +0.000 OA
BRANCH 681 682
ATOM    682  C5' A   B  66      -8.733 -15.105  -1.273  0.00  0.00    +0.000 C 
BRANCH 682 683
ATOM    683  C4' A   B  66      -9.302 -16.220  -2.113  0.00  0.00    +0.000 C 
ATOM    684  O4' A   B  66      -9.278 -15.840  -3.513  0.00  0.00    +0.000 OA
ATOM    685  C3' A   B  66      -8.542 -17.529  -2.067  0.00  0.00    +0.000 C 
ATOM    686  C2' A   B  66      -8.954 -18.184  -3.376  0.00  0.00    +0.000 C 
ATOM    687  C1' A   B  66      -9.021 -16.977  -4.312  0.00  0.00    +0.000 C 
BRANCH 687 688
ATOM    688  N9  A   B  66      -7.763 -16.762  -5.045  0.00  0.00    +0.000 N 
ATOM    689  C8  A   B  66      -6.787 -15.840  -4.781  0.00  0.00    +0.000 A 
ATOM    690  N7  A   B  66      -5.778 -15.886  -5.618  0.00  0.00    +0.000 NA
ATOM    691  C5  A   B  66      -6.110 -16.908  -6.493  0.00  0.00    +0.000 A 
ATOM    692  C6  A   B  66      -5.456 -17.452  -7.609  0.00  0.00    +0.000 A 
ATOM    693  N1  A   B  66      -6.062 -18.466  -8.259  0.00  0.00    +0.000 NA
ATOM    694  C2  A   B  66      -7.246 -18.895  -7.814  0.00  0.00    +0.000 A 
ATOM    695  N3  A   B  66      -7.960 -18.462  -6.779  0.00  0.00    +0.000 NA
ATOM    696  C4  A   B  66      -7.331 -17.456  -6.151  0.00  0.00    +0.000 A 
BRANCH 692 697
ATOM    697  N6  A   B  66      -4.270 -17.019  -8.052  0.00  0.00    +0.000 N 
ATOM    698  H   A   B  66      -3.856 -17.438  -8.841  0.00  0.00    +0.000 HD
ATOM    699  H   A   B  66      -3.811 -16.281  -7.589  0.00  0.00    +0.000 HD
ENDBRANCH 692 697
ENDBRANCH 687 688
BRANCH 686 700
ATOM    700  O2' A   B  66     -10.243 -18.771  -3.291  0.00  0.00    +0.000 OA
ATOM    701  H   A   B  66     -10.887 -18.098  -3.020  0.00  0.00    +0.000 HD
ENDBRANCH 686 700
BRANCH 685 702
ATOM    702  O3' A   B  66      -8.857 -18.301  -0.914  0.00  0.00    +0.000 OA
BRANCH 702 703
ATOM    703  P   A   B  67      -7.756 -19.258  -0.244  0.00  0.00    +0.000 P 
ATOM    704  OP2 A   B  67      -6.439 -18.575  -0.314  0.00  0.00    +0.000 OA
BRANCH 703 705
ATOM    705  OP1 A   B  67      -8.283 -19.705   1.068  0.00  0.00    +0.000 OA
ATOM    706  H   A   B  67      -9.146 -20.129   0.942  0.00  0.00    +0.000 HD
ENDBRANCH 703 705
BRANCH 703 707
ATOM    707  O5' A   B  67      -7.718 -20.515  -1.219  0.00  0.00    +0.000 OA
BRANCH 707 708
ATOM    708  C5' A   B  67      -8.876 -21.306  -1.433  0.00  0.00    +0.000 C 
BRANCH 708 709
ATOM    709  C4' A   B  67      -8.665 -22.268  -2.576  0.00  0.00    +0.000 C 
ATOM    710  O4' A   B  67      -8.483 -21.528  -3.813  0.00  0.00    +0.000 OA
ATOM    711  C3' A   B  67      -7.435 -23.139  -2.482  0.00  0.00    +0.000 C 
ATOM    712  C2' A   B  67      -7.194 -23.513  -3.938  0.00  0.00    +0.000 C 
ATOM    713  C1' A   B  67      -7.573 -22.213  -4.649  0.00  0.00    +0.000 C 
BRANCH 713 714
ATOM    714  N9  A   B  67      -6.411 -21.344  -4.889  0.00  0.00    +0.000 N 
ATOM    715  C8  A   B  67      -5.997 -20.269  -4.149  0.00  0.00    +0.000 A 
ATOM    716  N7  A   B  67      -4.917 -19.694  -4.620  0.00  0.00    +0.000 NA
ATOM    717  C5  A   B  67      -4.599 -20.441  -5.745  0.00  0.00    +0.000 A 
ATOM    718  C6  A   B  67      -3.564 -20.344  -6.687  0.00  0.00    +0.000 A 
ATOM    719  N1  A   B  67      -3.540 -21.246  -7.683  0.00  0.00    +0.000 NA
ATOM    720  C2  A   B  67      -4.492 -22.182  -7.729  0.00  0.00    +0.000 A 
ATOM    721  N3  A   B  67      -5.516 -22.376  -6.903  0.00  0.00    +0.000 NA
ATOM    722  C4  A   B  67      -5.514 -21.459  -5.921  0.00  0.00    +0.000 A 
BRANCH 718 723
ATOM    723  N6  A   B  67      -2.609 -19.405  -6.638  0.00  0.00    +0.000 N 
ATOM    724  H   A   B  67      -1.905 -19.383  -7.326  0.00  0.00    +0.000 HD
ATOM    725  H   A   B  67      -2.611 -18.738  -5.914  0.00  0.00    +0.000 HD
ENDBRANCH 718 723
ENDBRANCH 713 714
BRANCH 712 726
ATOM    726  O2' A   B  67      -8.065 -24.548  -4.364  0.00  0.00    +0.000 OA
ATOM    727  H   A   B  67      -8.985 -24.277  -4.218  0.00  0.00    +0.000 HD
ENDBRANCH 712 726
BRANCH 711 728
ATOM    728  O3' A   B  67      -7.625 -24.257  -1.620  0.00  0.00    +0.000 OA
BRANCH 728 729
ATOM    729  P   A   B  68      -6.455 -24.744  -0.646  0.00  0.00    +0.000 P 
ATOM    730  OP2 A   B  68      -5.759 -23.537  -0.130  0.00  0.00    +0.000 OA
BRANCH 729 731
ATOM    731  OP1 A   B  68      -7.030 -25.726   0.304  0.00  0.00    +0.000 OA
ATOM    732  H   A   B  68      -7.446 -26.449  -0.191  0.00  0.00    +0.000 HD
ENDBRANCH 729 731
BRANCH 729 733
ATOM    733  O5' A   B  68      -5.447 -25.510  -1.611  0.00  0.00    +0.000 OA
BRANCH 733 734
ATOM    734  C5' A   B  68      -5.871 -26.641  -2.349  0.00  0.00    +0.000 C 
BRANCH 734 735
ATOM    735  C4' A   B  68      -4.862 -26.991  -3.418  0.00  0.00    +0.000 C 
ATOM    736  O4' A   B  68      -4.801 -25.921  -4.399  0.00  0.00    +0.000 OA
ATOM    737  C3' A   B  68      -3.434 -27.140  -2.942  0.00  0.00    +0.000 C 
ATOM    738  C2' A   B  68      -2.637 -26.872  -4.210  0.00  0.00    +0.000 C 
ATOM    739  C1' A   B  68      -3.478 -25.770  -4.863  0.00  0.00    +0.000 C 
BRANCH 739 740
ATOM    740  N9  A   B  68      -3.011 -24.422  -4.503  0.00  0.00    +0.000 N 
ATOM    741  C8  A   B  68      -3.499 -23.595  -3.527  0.00  0.00    +0.000 A 
ATOM    742  N7  A   B  68      -2.869 -22.445  -3.446  0.00  0.00    +0.000 NA
ATOM    743  C5  A   B  68      -1.903 -22.522  -4.438  0.00  0.00    +0.000 A 
ATOM    744  C6  A   B  68      -0.914 -21.626  -4.866  0.00  0.00    +0.000 A 
ATOM    745  N6  A   B  68      -0.724 -20.418  -4.314  0.00  0.00    +0.000 N 
ATOM    746  N1  A   B  68      -0.118 -22.013  -5.878  0.00  0.00    +0.000 NA
ATOM    747  C2  A   B  68      -0.308 -23.218  -6.419  0.00  0.00    +0.000 A 
ATOM    748  N3  A   B  68      -1.203 -24.150  -6.106  0.00  0.00    +0.000 NA
ATOM    749  C4  A   B  68      -1.982 -23.735  -5.096  0.00  0.00    +0.000 A 
ATOM    750  H   A   B  68      -0.013 -19.828  -4.654  0.00  0.00    +0.000 HD
ATOM    751  H   A   B  68      -1.295 -20.122  -3.569  0.00  0.00    +0.000 HD
ENDBRANCH 739 740
BRANCH 738 752
ATOM    752  O2' A   B  68      -2.605 -28.003  -5.061  0.00  0.00    +0.000 OA
ATOM    753  H   A   B  68      -3.512 -28.277  -5.269  0.00  0.00    +0.000 HD
ENDBRANCH 738 752
BRANCH 737 754
ATOM    754  O3' A   B  68      -3.190 -28.417  -2.367  0.00  0.00    +0.000 OA
BRANCH 754 755
ATOM    755  P   A   B  69      -2.112 -28.626  -1.221  0.00  0.00    +0.000 P 
ATOM    756  OP2 A   B  69      -1.741 -27.279  -0.712  0.00  0.00    +0.000 OA
BRANCH 755 757
ATOM    757  OP1 A   B  69      -2.607 -29.640  -0.271  0.00  0.00    +0.000 OA
ATOM    758  H   A   B  69      -2.806 -30.461  -0.748  0.00  0.00    +0.000 HD
ENDBRANCH 755 757
BRANCH 755 759
ATOM    759  O5' A   B  69      -0.869 -29.236  -1.996  0.00  0.00    +0.000 OA
BRANCH 759 760
ATOM    760  C5' A   B  69       0.400 -29.358  -1.369  0.00  0.00    +0.000 C 
BRANCH 760 761
ATOM    761  C4' A   B  69       1.500 -29.072  -2.355  0.00  0.00    +0.000 C 
ATOM    762  O4' A   B  69       1.051 -28.053  -3.278  0.00  0.00    +0.000 OA
ATOM    763  C3' A   B  69       2.782 -28.519  -1.753  0.00  0.00    +0.000 C 
ATOM    764  C2' A   B  69       3.363 -27.686  -2.876  0.00  0.00    +0.000 C 
ATOM    765  C1' A   B  69       2.101 -27.170  -3.590  0.00  0.00    +0.000 C 
BRANCH 765 766
ATOM    766  N9  A   B  69       1.695 -25.818  -3.193  0.00  0.00    +0.000 N 
ATOM    767  C8  A   B  69       0.446 -25.421  -2.781  0.00  0.00    +0.000 A 
ATOM    768  N7  A   B  69       0.357 -24.144  -2.499  0.00  0.00    +0.000 NA
ATOM    769  C5  A   B  69       1.635 -23.667  -2.751  0.00  0.00    +0.000 A 
ATOM    770  C6  A   B  69       2.195 -22.386  -2.647  0.00  0.00    +0.000 A 
ATOM    771  N6  A   B  69       1.502 -21.307  -2.243  0.00  0.00    +0.000 N 
ATOM    772  N1  A   B  69       3.494 -22.241  -2.971  0.00  0.00    +0.000 NA
ATOM    773  C2  A   B  69       4.174 -23.320  -3.374  0.00  0.00    +0.000 A 
ATOM    774  N3  A   B  69       3.757 -24.570  -3.512  0.00  0.00    +0.000 NA
ATOM    775  C4  A   B  69       2.462 -24.681  -3.181  0.00  0.00    +0.000 A 
ATOM    776  H   A   B  69       1.945 -20.430  -2.188  0.00  0.00    +0.000 HD
ATOM    777  H   A   B  69       0.551 -21.394  -2.002  0.00  0.00    +0.000 HD
ENDBRANCH 765 766
BRANCH 764 778
ATOM    778  O2' A   B  69       4.127 -28.467  -3.778  0.00  0.00    +0.000 OA
ATOM    779  H   A   B  69       3.575 -29.180  -4.136  0.00  0.00    +0.000 HD
ENDBRANCH 764 778
BRANCH 763 780
ATOM    780  O3' A   B  69       3.664 -29.577  -1.337  0.00  0.00    +0.000 OA
BRANCH 780 781
ATOM    781  P   A   B  70       4.425 -29.500  -0.009  0.00  0.00    +0.000 P 
ATOM    782  OP2 A   B  70       5.026 -28.141   0.086  0.00  0.00    +0.000 OA
BRANCH 781 783
ATOM    783  OP1 A   B  70       3.528 -29.984   1.056  0.00  0.00    +0.000 OA
ATOM    784  H   A   B  70       3.226 -30.880   0.842  0.00  0.00    +0.000 HD
ENDBRANCH 781 783
BRANCH 781 785
ATOM    785  O5' A   B  70       5.625 -30.540  -0.180  0.00  0.00    +0.000 OA
BRANCH 785 786
ATOM    786  C5' A   B  70       5.490 -31.924   0.129  0.00  0.00    +0.000 C 
BRANCH 786 787
ATOM    787  C4' A   B  70       6.341 -32.765  -0.788  0.00  0.00    +0.000 C 
ATOM    788  O4' A   B  70       5.946 -32.516  -2.157  0.00  0.00    +0.000 OA
ATOM    789  C3' A   B  70       7.834 -32.477  -0.715  0.00  0.00    +0.000 C 
ATOM    790  C2' A   B  70       8.304 -32.720  -2.145  0.00  0.00    +0.000 C 
ATOM    791  C1' A   B  70       7.086 -32.287  -2.962  0.00  0.00    +0.000 C 
BRANCH 791 792
ATOM    792  N9  A   B  70       7.073 -30.870  -3.359  0.00  0.00    +0.000 N 
ATOM    793  C8  A   B  70       5.995 -30.245  -3.923  0.00  0.00    +0.000 A 
ATOM    794  N7  A   B  70       6.181 -28.973  -4.183  0.00  0.00    +0.000 NA
ATOM    795  C5  A   B  70       7.474 -28.735  -3.759  0.00  0.00    +0.000 A 
ATOM    796  C6  A   B  70       8.262 -27.573  -3.768  0.00  0.00    +0.000 A 
ATOM    797  N1  A   B  70       9.516 -27.657  -3.285  0.00  0.00    +0.000 NA
ATOM    798  C2  A   B  70       9.932 -28.834  -2.828  0.00  0.00    +0.000 A 
ATOM    799  N3  A   B  70       9.286 -29.991  -2.773  0.00  0.00    +0.000 NA
ATOM    800  C4  A   B  70       8.044 -29.885  -3.254  0.00  0.00    +0.000 A 
BRANCH 796 801
ATOM    801  N6  A   B  70       7.823 -26.388  -4.235  0.00  0.00    +0.000 N 
ATOM    802  H   A   B  70       6.909 -26.308  -4.592  0.00  0.00    +0.000 HD
ATOM    803  H   A   B  70       8.416 -25.602  -4.219  0.00  0.00    +0.000 HD
ENDBRANCH 796 801
ENDBRANCH 791 792
BRANCH 790 804
ATOM    804  O2' A   B  70       8.561 -34.095  -2.369  0.00  0.00    +0.000 OA
ATOM    805  H   A   B  70       7.765 -34.610  -2.164  0.00  0.00    +0.000 HD
ENDBRANCH 790 804
BRANCH 789 806
ATOM    806  O3' A   B  70       8.484 -33.334   0.239  0.00  0.00    +0.000 OA
BRANCH 806 807
ATOM    807  P   U   B  71       9.833 -32.916   0.940  0.00  0.00    +0.000 P 
ATOM    808  OP2 U   B  71       9.770 -31.458   1.207  0.00  0.00    +0.000 OA
BRANCH 807 809
ATOM    809  OP1 U   B  71      10.070 -33.850   2.067  0.00  0.00    +0.000 OA
ATOM    810  H   U   B  71      10.084 -34.761   1.734  0.00  0.00    +0.000 HD
ENDBRANCH 807 809
BRANCH 807 811
ATOM    811  O5' U   B  71      10.958 -33.191  -0.166  0.00  0.00    +0.000 OA
BRANCH 811 812
ATOM    812  C5' U   B  71      12.339 -33.279   0.208  0.00  0.00    +0.000 C 
BRANCH 812 813
ATOM    813  C4' U   B  71      13.214 -32.562  -0.794  0.00  0.00    +0.000 C 
ATOM    814  O4' U   B  71      12.422 -31.548  -1.481  0.00  0.00    +0.000 OA
ATOM    815  C3' U   B  71      14.398 -31.797  -0.215  0.00  0.00    +0.000 C 
ATOM    816  C2' U   B  71      14.621 -30.687  -1.227  0.00  0.00    +0.000 C 
ATOM    817  C1' U   B  71      13.179 -30.381  -1.660  0.00  0.00    +0.000 C 
BRANCH 817 818
ATOM    818  N1  U   B  71      12.554 -29.299  -0.870  0.00  0.00    +0.000 N 
ATOM    819  C2  U   B  71      12.875 -27.997  -1.174  0.00  0.00    +0.000 A 
ATOM    820  O2  U   B  71      13.657 -27.692  -2.056  0.00  0.00    +0.000 OA
ATOM    821  N3  U   B  71      12.249 -27.046  -0.402  0.00  0.00    +0.000 N 
ATOM    822  C4  U   B  71      11.350 -27.267   0.619  0.00  0.00    +0.000 A 
ATOM    823  O4  U   B  71      10.871 -26.307   1.224  0.00  0.00    +0.000 OA
ATOM    824  C5  U   B  71      11.066 -28.645   0.873  0.00  0.00    +0.000 A 
ATOM    825  C6  U   B  71      11.660 -29.589   0.135  0.00  0.00    +0.000 A 
ATOM    826  H   U   B  71      12.467 -26.106  -0.600  0.00  0.00    +0.000 HD
ENDBRANCH 817 818
BRANCH 816 827
ATOM    827  O2' U   B  71      15.368 -31.120  -2.345  0.00  0.00    +0.000 OA
ATOM    828  H   U   B  71      14.922 -31.875  -2.759  0.00  0.00    +0.000 HD
ENDBRANCH 816 827
BRANCH 815 829
ATOM    829  O3' U   B  71      15.543 -32.623  -0.043  0.00  0.00    +0.000 OA
BRANCH 829 830
ATOM    830  P   C   B  72      16.686 -32.236   0.954  0.00  0.00    +0.000 P 
ATOM    831  OP2 C   B  72      17.202 -30.898   0.562  0.00  0.00    +0.000 OA
BRANCH 830 832
ATOM    832  OP1 C   B  72      16.163 -32.444   2.321  0.00  0.00    +0.000 OA
ATOM    833  H   C   B  72      15.454 -31.806   2.497  0.00  0.00    +0.000 HD
ENDBRANCH 830 832
BRANCH 830 834
ATOM    834  O5' C   B  72      17.843 -33.293   0.695  0.00  0.00    +0.000 OA
BRANCH 834 835
ATOM    835  C5' C   B  72      17.628 -34.692   0.915  0.00  0.00    +0.000 C 
BRANCH 835 836
ATOM    836  C4' C   B  72      18.642 -35.509   0.152  0.00  0.00    +0.000 C 
ATOM    837  O4' C   B  72      18.517 -35.233  -1.267  0.00  0.00    +0.000 OA
ATOM    838  C3' C   B  72      20.092 -35.214   0.470  0.00  0.00    +0.000 C 
ATOM    839  C2' C   B  72      20.814 -35.640  -0.804  0.00  0.00    +0.000 C 
ATOM    840  C1' C   B  72      19.794 -35.231  -1.874  0.00  0.00    +0.000 C 
BRANCH 840 841
ATOM    841  N1  C   B  72      20.049 -33.887  -2.429  0.00  0.00    +0.000 N 
ATOM    842  C2  C   B  72      21.059 -33.727  -3.385  0.00  0.00    +0.000 A 
ATOM    843  O2  C   B  72      21.712 -34.717  -3.746  0.00  0.00    +0.000 OA
ATOM    844  N3  C   B  72      21.298 -32.495  -3.894  0.00  0.00    +0.000 NA
ATOM    845  C4  C   B  72      20.577 -31.448  -3.488  0.00  0.00    +0.000 A 
ATOM    846  N4  C   B  72      20.852 -30.252  -4.014  0.00  0.00    +0.000 N 
ATOM    847  C5  C   B  72      19.545 -31.582  -2.518  0.00  0.00    +0.000 A 
ATOM    848  C6  C   B  72      19.315 -32.805  -2.022  0.00  0.00    +0.000 A 
ATOM    849  H   C   B  72      21.567 -30.162  -4.685  0.00  0.00    +0.000 HD
ATOM    850  H   C   B  72      20.340 -29.460  -3.731  0.00  0.00    +0.000 HD
ENDBRANCH 840 841
BRANCH 839 851
ATOM    851  O2' C   B  72      21.019 -37.035  -0.857  0.00  0.00    +0.000 OA
ATOM    852  H   C   B  72      20.167 -37.490  -0.773  0.00  0.00    +0.000 HD
ENDBRANCH 839 851
BRANCH 838 853
ATOM    853  O3' C   B  72      20.545 -35.916   1.627  0.00  0.00    +0.000 OA
BRANCH 853 854
ATOM    854  P   U   B  73      21.421 -35.191   2.741  0.00  0.00    +0.000 P 
ATOM    855  OP2 U   B  73      20.998 -33.767   2.790  0.00  0.00    +0.000 OA
BRANCH 854 856
ATOM    856  OP1 U   B  73      21.371 -36.016   3.969  0.00  0.00    +0.000 OA
ATOM    857  H   U   B  73      21.678 -36.914   3.768  0.00  0.00    +0.000 HD
ENDBRANCH 854 856
BRANCH 854 858
ATOM    858  O5' U   B  73      22.903 -35.252   2.164  0.00  0.00    +0.000 OA
BRANCH 858 859
ATOM    859  C5' U   B  73      23.589 -36.490   2.046  0.00  0.00    +0.000 C 
BRANCH 859 860
ATOM    860  C4' U   B  73      24.837 -36.351   1.210  0.00  0.00    +0.000 C 
ATOM    861  O4' U   B  73      24.488 -35.848  -0.107  0.00  0.00    +0.000 OA
ATOM    862  C3' U   B  73      25.877 -35.374   1.718  0.00  0.00    +0.000 C 
ATOM    863  C2' U   B  73      26.658 -35.046   0.451  0.00  0.00    +0.000 C 
ATOM    864  C1' U   B  73      25.536 -35.034  -0.595  0.00  0.00    +0.000 C 
BRANCH 864 865
ATOM    865  N1  U   B  73      25.017 -33.675  -0.844  0.00  0.00    +0.000 N 
ATOM    866  C2  U   B  73      25.731 -32.865  -1.712  0.00  0.00    +0.000 A 
ATOM    867  O2  U   B  73      26.752 -33.232  -2.267  0.00  0.00    +0.000 OA
ATOM    868  N3  U   B  73      25.210 -31.610  -1.906  0.00  0.00    +0.000 N 
ATOM    869  C4  U   B  73      24.069 -31.090  -1.333  0.00  0.00    +0.000 A 
ATOM    870  O4  U   B  73      23.727 -29.940  -1.603  0.00  0.00    +0.000 OA
ATOM    871  C5  U   B  73      23.384 -31.984  -0.450  0.00  0.00    +0.000 A 
ATOM    872  C6  U   B  73      23.869 -33.216  -0.242  0.00  0.00    +0.000 A 
ATOM    873  H   U   B  73      25.703 -31.019  -2.519  0.00  0.00    +0.000 HD
ENDBRANCH 864 865
BRANCH 863 874
ATOM    874  O2' U   B  73      27.586 -36.058   0.125  0.00  0.00    +0.000 OA
ATOM    875  H   U   B  73      27.123 -36.906   0.039  0.00  0.00    +0.000 HD
ENDBRANCH 863 874
BRANCH 862 876
ATOM    876  O3' U   B  73      26.690 -35.924   2.750  0.00  0.00    +0.000 OA
BRANCH 876 877
ATOM    877  P   C   B  74      27.435 -34.970   3.774  0.00  0.00    +0.000 P 
ATOM    878  OP2 C   B  74      26.574 -33.776   4.005  0.00  0.00    +0.000 OA
BRANCH 877 879
ATOM    879  OP1 C   B  74      27.876 -35.789   4.927  0.00  0.00    +0.000 OA
ATOM    880  H   C   B  74      28.425 -36.523   4.611  0.00  0.00    +0.000 HD
ENDBRANCH 877 879
BRANCH 877 881
ATOM    881  O5' C   B  74      28.727 -34.500   2.975  0.00  0.00    +0.000 OA
BRANCH 881 882
ATOM    882  C5' C   B  74      29.738 -35.426   2.600  0.00  0.00    +0.000 C 
BRANCH 882 883
ATOM    883  C4' C   B  74      30.732 -34.806   1.648  0.00  0.00    +0.000 C 
ATOM    884  O4' C   B  74      30.044 -34.335   0.456  0.00  0.00    +0.000 OA
ATOM    885  C3' C   B  74      31.470 -33.587   2.153  0.00  0.00    +0.000 C 
ATOM    886  C2' C   B  74      31.908 -32.913   0.855  0.00  0.00    +0.000 C 
ATOM    887  C1' C   B  74      30.709 -33.197  -0.055  0.00  0.00    +0.000 C 
BRANCH 887 888
ATOM    888  N1  C   B  74      29.754 -32.068  -0.117  0.00  0.00    +0.000 N 
ATOM    889  C2  C   B  74      29.999 -31.037  -1.029  0.00  0.00    +0.000 A 
ATOM    890  O2  C   B  74      30.999 -31.103  -1.759  0.00  0.00    +0.000 OA
ATOM    891  N3  C   B  74      29.138 -29.991  -1.102  0.00  0.00    +0.000 NA
ATOM    892  C4  C   B  74      28.068 -29.953  -0.304  0.00  0.00    +0.000 A 
ATOM    893  N4  C   B  74      27.247 -28.907  -0.407  0.00  0.00    +0.000 N 
ATOM    894  C5  C   B  74      27.796 -30.988   0.635  0.00  0.00    +0.000 A 
ATOM    895  C6  C   B  74      28.653 -32.017   0.695  0.00  0.00    +0.000 A 
ATOM    896  H   C   B  74      27.438 -28.193  -1.057  0.00  0.00    +0.000 HD
ATOM    897  H   C   B  74      26.450 -28.849   0.167  0.00  0.00    +0.000 HD
ENDBRANCH 887 888
BRANCH 886 898
ATOM    898  O2' C   B  74      33.062 -33.520   0.312  0.00  0.00    +0.000 OA
ATOM    899  H   C   B  74      32.896 -34.466   0.175  0.00  0.00    +0.000 HD
ENDBRANCH 886 898
BRANCH 885 900
ATOM    900  O3' C   B  74      32.563 -33.929   3.005  0.00  0.00    +0.000 OA
BRANCH 900 901
ATOM    901  P   C   B  75      32.998 -32.960   4.190  0.00  0.00    +0.000 P 
ATOM    902  OP2 C   B  75      31.760 -32.421   4.806  0.00  0.00    +0.000 OA
BRANCH 901 903
ATOM    903  OP1 C   B  75      33.991 -33.665   5.032  0.00  0.00    +0.000 OA
ATOM    904  H   C   B  75      34.736 -33.953   4.481  0.00  0.00    +0.000 HD
ENDBRANCH 901 903
BRANCH 901 905
ATOM    905  O5' C   B  75      33.737 -31.771   3.440  0.00  0.00    +0.000 OA
BRANCH 905 906
ATOM    906  C5' C   B  75      34.961 -31.981   2.754  0.00  0.00    +0.000 C 
BRANCH 906 907
ATOM    907  C4' C   B  75      35.391 -30.745   2.005  0.00  0.00    +0.000 C 
ATOM    908  O4' C   B  75      34.426 -30.438   0.961  0.00  0.00    +0.000 OA
ATOM    909  C3' C   B  75      35.468 -29.473   2.820  0.00  0.00    +0.000 C 
ATOM    910  C2' C   B  75      35.357 -28.394   1.746  0.00  0.00    +0.000 C 
ATOM    911  C1' C   B  75      34.370 -29.041   0.767  0.00  0.00    +0.000 C 
BRANCH 911 912
ATOM    912  N1  C   B  75      32.977 -28.585   0.967  0.00  0.00    +0.000 N 
ATOM    913  C2  C   B  75      32.573 -27.389   0.362  0.00  0.00    +0.000 A 
ATOM    914  O2  C   B  75      33.388 -26.755  -0.321  0.00  0.00    +0.000 OA
ATOM    915  N3  C   B  75      31.302 -26.951   0.529  0.00  0.00    +0.000 NA
ATOM    916  C4  C   B  75      30.448 -27.659   1.269  0.00  0.00    +0.000 A 
ATOM    917  N4  C   B  75      29.204 -27.192   1.406  0.00  0.00    +0.000 N 
ATOM    918  C5  C   B  75      30.831 -28.878   1.898  0.00  0.00    +0.000 A 
ATOM    919  C6  C   B  75      32.091 -29.301   1.723  0.00  0.00    +0.000 A 
ATOM    920  H   C   B  75      28.944 -26.349   0.969  0.00  0.00    +0.000 HD
ATOM    921  H   C   B  75      28.547 -27.691   1.944  0.00  0.00    +0.000 HD
ENDBRANCH 911 912
BRANCH 910 922
ATOM    922  O2' C   B  75      36.591 -28.180   1.089  0.00  0.00    +0.000 OA
ATOM    923  H   C   B  75      36.907 -29.017   0.714  0.00  0.00    +0.000 HD
ENDBRANCH 910 922
BRANCH 909 924
ATOM    924  O3' C   B  75      36.672 -29.390   3.576  0.00  0.00    +0.000 OA
BRANCH 924 925
ATOM    925  P   A   B  76      36.668 -28.745   5.011  0.00  0.00    +0.000 P 
ATOM    926  OP2 A   B  76      35.375 -29.092   5.639  0.00  0.00    +0.000 OA
BRANCH 925 927
ATOM    927  OP1 A   B  76      37.937 -29.105   5.686  0.00  0.00    +0.000 OA
ATOM    928  H   A   B  76      38.686 -28.808   5.146  0.00  0.00    +0.000 HD
ENDBRANCH 925 927
BRANCH 925 929
ATOM    929  O5' A   B  76      36.681 -27.181   4.737  0.00  0.00    +0.000 OA
BRANCH 929 930
ATOM    930  C5' A   B  76      37.893 -26.501   4.435  0.00  0.00    +0.000 C 
BRANCH 930 931
ATOM    931  C4' A   B  76      37.677 -25.008   4.389  0.00  0.00    +0.000 C 
ATOM    932  O4' A   B  76      36.869 -24.677   3.227  0.00  0.00    +0.000 OA
ATOM    933  C3' A   B  76      36.919 -24.419   5.556  0.00  0.00    +0.000 C 
ATOM    934  C2' A   B  76      36.349 -23.137   4.968  0.00  0.00    +0.000 C 
ATOM    935  C1' A   B  76      36.061 -23.558   3.518  0.00  0.00    +0.000 C 
BRANCH 935 936
ATOM    936  N9  A   B  76      34.661 -23.924   3.285  0.00  0.00    +0.000 N 
ATOM    937  C8  A   B  76      34.126 -25.172   3.146  0.00  0.00    +0.000 A 
ATOM    938  N7  A   B  76      32.830 -25.172   2.928  0.00  0.00    +0.000 NA
ATOM    939  C5  A   B  76      32.493 -23.832   2.924  0.00  0.00    +0.000 A 
ATOM    940  C6  A   B  76      31.270 -23.161   2.740  0.00  0.00    +0.000 A 
ATOM    941  N1  A   B  76      31.283 -21.814   2.789  0.00  0.00    +0.000 NA
ATOM    942  C2  A   B  76      32.446 -21.188   3.006  0.00  0.00    +0.000 A 
ATOM    943  N3  A   B  76      33.651 -21.711   3.189  0.00  0.00    +0.000 NA
ATOM    944  C4  A   B  76      33.607 -23.053   3.136  0.00  0.00    +0.000 A 
BRANCH 940 945
ATOM    945  N6  A   B  76      30.104 -23.785   2.516  0.00  0.00    +0.000 N 
ATOM    946  H   A   B  76      29.280 -23.260   2.395  0.00  0.00    +0.000 HD
ATOM    947  H   A   B  76      30.072 -24.768   2.473  0.00  0.00    +0.000 HD
ENDBRANCH 940 945
ENDBRANCH 935 936
BRANCH 934 948
ATOM    948  O2' A   B  76      37.294 -22.089   4.976  0.00  0.00    +0.000 OA
ATOM    949  H   A   B  76      38.089 -22.367   4.494  0.00  0.00    +0.000 HD
ENDBRANCH 934 948
BRANCH 933 950
ATOM    950  O3' A   B  76      37.776 -24.183   6.677  0.00  0.00    +0.000 OA
ATOM    951  H   A   B  76      38.503 -23.599   6.411  0.00  0.00    +0.000 HD
ENDBRANCH 933 950
ENDBRANCH 930 931
ENDBRANCH 929 930
ENDBRANCH 925 929
ENDBRANCH 924 925
ENDBRANCH 909 924
ENDBRANCH 906 907
ENDBRANCH 905 906
ENDBRANCH 901 905
ENDBRANCH 900 901
ENDBRANCH 885 900
ENDBRANCH 882 883
ENDBRANCH 881 882
ENDBRANCH 877 881
ENDBRANCH 876 877
ENDBRANCH 862 876
ENDBRANCH 859 860
ENDBRANCH 858 859
ENDBRANCH 854 858
ENDBRANCH 853 854
ENDBRANCH 838 853
ENDBRANCH 835 836
ENDBRANCH 834 835
ENDBRANCH 830 834
ENDBRANCH 829 830
ENDBRANCH 815 829
ENDBRANCH 812 813
ENDBRANCH 811 812
ENDBRANCH 807 811
ENDBRANCH 806 807
ENDBRANCH 789 806
ENDBRANCH 786 787
ENDBRANCH 785 786
ENDBRANCH 781 785
ENDBRANCH 780 781
ENDBRANCH 763 780
ENDBRANCH 760 761
ENDBRANCH 759 760
ENDBRANCH 755 759
ENDBRANCH 754 755
ENDBRANCH 737 754
ENDBRANCH 734 735
ENDBRANCH 733 734
ENDBRANCH 729 733
ENDBRANCH 728 729
ENDBRANCH 711 728
ENDBRANCH 708 709
ENDBRANCH 707 708
ENDBRANCH 703 707
ENDBRANCH 702 703
ENDBRANCH 685 702
ENDBRANCH 682 683
ENDBRANCH 681 682
ENDBRANCH 677 681
ENDBRANCH 676 677
ENDBRANCH 661 676
ENDBRANCH 658 659
ENDBRANCH 657 658
ENDBRANCH 653 657
ENDBRANCH 652 653
ENDBRANCH 635 652
ENDBRANCH 632 633
ENDBRANCH 631 632
ENDBRANCH 627 631
ENDBRANCH 626 627
ENDBRANCH 612 626
ENDBRANCH 609 610
ENDBRANCH 608 609
ENDBRANCH 604 608
ENDBRANCH 603 604
ENDBRANCH 588 603
ENDBRANCH 585 586
ENDBRANCH 584 585
ENDBRANCH 580 584
ENDBRANCH 579 580
ENDBRANCH 562 579
ENDBRANCH 559 560
ENDBRANCH 558 559
ENDBRANCH 554 558
ENDBRANCH 553 554
ENDBRANCH 534 553
ENDBRANCH 531 532
ENDBRANCH 530 531
ENDBRANCH 526 530
ENDBRANCH 525 526
ENDBRANCH 508 525
ENDBRANCH 505 506
ENDBRANCH 504 505
ENDBRANCH 500 504
ENDBRANCH 499 500
ENDBRANCH 484 499
ENDBRANCH 481 482
ENDBRANCH 480 481
ENDBRANCH 476 480
ENDBRANCH 475 476
ENDBRANCH 458 475
ENDBRANCH 455 456
ENDBRANCH 454 455
ENDBRANCH 450 454
ENDBRANCH 449 450
ENDBRANCH 432 449
ENDBRANCH 429 430
ENDBRANCH 428 429
ENDBRANCH 424 428
ENDBRANCH 423 424
ENDBRANCH 406 423
ENDBRANCH 403 404
ENDBRANCH 402 403
ENDBRANCH 398 402
ENDBRANCH 397 398
ENDBRANCH 380 397
ENDBRANCH 377 378
ENDBRANCH 376 377
ENDBRANCH 372 376
ENDBRANCH 371 372
ENDBRANCH 354 371
ENDBRANCH 351 352
ENDBRANCH 350 351
ENDBRANCH 346 350
ENDBRANCH 345 346
ENDBRANCH 331 345
ENDBRANCH 328 329
ENDBRANCH 327 328
ENDBRANCH 323 327
ENDBRANCH 322 323
ENDBRANCH 308 322
ENDBRANCH 305 306
ENDBRANCH 304 305
ENDBRANCH 300 304
ENDBRANCH 299 300
ENDBRANCH 285 299
ENDBRANCH 282 283
ENDBRANCH 281 282
ENDBRANCH 277 281
ENDBRANCH 276 277
ENDBRANCH 262 276
ENDBRANCH 259 260
ENDBRANCH 258 259
ENDBRANCH 254 258
ENDBRANCH 253 254
ENDBRANCH 236 253
ENDBRANCH 233 234
ENDBRANCH 232 233
ENDBRANCH 228 232
ENDBRANCH 227 228
ENDBRANCH 213 227
ENDBRANCH 210 211
ENDBRANCH 209 210
ENDBRANCH 205 209
ENDBRANCH 204 205
ENDBRANCH 190 204
ENDBRANCH 187 188
ENDBRANCH 186 187
ENDBRANCH 182 186
ENDBRANCH 181 182
ENDBRANCH 167 181
ENDBRANCH 164 165
ENDBRANCH 163 164
ENDBRANCH 159 163
ENDBRANCH 158 159
ENDBRANCH 143 158
ENDBRANCH 140 141
ENDBRANCH 139 140
ENDBRANCH 135 139
ENDBRANCH 134 135
ENDBRANCH 117 134
ENDBRANCH 114 115
ENDBRANCH 113 114
ENDBRANCH 109 113
ENDBRANCH 108 109
ENDBRANCH  94 108
ENDBRANCH  91  92
ENDBRANCH  90  91
ENDBRANCH  86  90
ENDBRANCH  85  86
ENDBRANCH  71  85
ENDBRANCH  68  69
ENDBRANCH  67  68
ENDBRANCH  63  67
ENDBRANCH  62  63
ENDBRANCH  47  62
ENDBRANCH  44  45
ENDBRANCH  43  44
ENDBRANCH  18  43
BRANCH   1 952
ATOM    952  C5' U   B  38     -33.450  26.987  11.317  0.00  0.00    +0.000 C 
BRANCH 952 953
ATOM    953  O5' U   B  38     -34.005  28.034  10.529  0.00  0.00    +0.000 OA
BRANCH 953 954
ATOM    954  P   U   B  38     -35.480  27.899   9.940  0.00  0.00    +0.000 P 
ATOM    955  OP2 U   B  38     -35.737  29.098   9.090  0.00  0.00    +0.000 OA
BRANCH 954 956
ATOM    956  OP1 U   B  38     -36.401  27.578  11.054  0.00  0.00    +0.000 OA
ATOM    957  H   U   B  38     -37.305  27.492  10.712  0.00  0.00    +0.000 HD
ENDBRANCH 954 956
BRANCH 954 958
ATOM    958  O3' A   B  37     -35.407  26.621   8.993  0.00  0.00    +0.000 OA
BRANCH 958 961
ATOM    959  C4' A   B  37     -35.492  25.914   6.660  0.00  0.00    +0.000 C 
ATOM    960  O4' A   B  37     -34.474  25.647   5.658  0.00  0.00    +0.000 OA
ATOM    961  C3' A   B  37     -34.753  26.685   7.734  0.00  0.00    +0.000 C 
ATOM    962  C2' A   B  37     -33.383  26.020   7.731  0.00  0.00    +0.000 C 
ATOM    963  C1' A   B  37     -33.193  25.736   6.241  0.00  0.00    +0.000 C 
BRANCH 963 964
ATOM    964  N9  A   B  37     -32.444  26.800   5.557  0.00  0.00    +0.000 N 
ATOM    965  C8  A   B  37     -32.926  27.923   4.940  0.00  0.00    +0.000 A 
ATOM    966  N7  A   B  37     -31.990  28.680   4.416  0.00  0.00    +0.000 NA
ATOM    967  C5  A   B  37     -30.814  28.008   4.714  0.00  0.00    +0.000 A 
ATOM    968  C6  A   B  37     -29.465  28.287   4.435  0.00  0.00    +0.000 A 
ATOM    969  N1  A   B  37     -28.539  27.413   4.869  0.00  0.00    +0.000 NA
ATOM    970  C2  A   B  37     -28.946  26.332   5.540  0.00  0.00    +0.000 A 
ATOM    971  N3  A   B  37     -30.182  25.956   5.862  0.00  0.00    +0.000 NA
ATOM    972  C4  A   B  37     -31.080  26.849   5.414  0.00  0.00    +0.000 A 
BRANCH 968 973
ATOM    973  N6  A   B  37     -29.057  29.376   3.766  0.00  0.00    +0.000 N 
ATOM    974  H   A   B  37     -29.717  30.029   3.439  0.00  0.00    +0.000 HD
ATOM    975  H   A   B  37     -28.097  29.522   3.602  0.00  0.00    +0.000 HD
ENDBRANCH 968 973
ENDBRANCH 963 964
BRANCH 962 976
ATOM    976  O2' A   B  37     -33.398  24.797   8.435  0.00  0.00    +0.000 OA
ATOM    977  H   A   B  37     -34.075  24.215   8.057  0.00  0.00    +0.000 HD
ENDBRANCH 962 976
BRANCH 959 978
ATOM    978  C5' A   B  37     -36.659  26.633   6.017  0.00  0.00    +0.000 C 
BRANCH 978 979
ATOM    979  O5' A   B  37     -36.262  27.911   5.544  0.00  0.00    +0.000 OA
BRANCH 979 980
ATOM    980  P   A   B  37     -37.235  28.777   4.632  0.00  0.00    +0.000 P 
ATOM    981  OP2 A   B  37     -36.546  30.054   4.313  0.00  0.00    +0.000 OA
BRANCH 980 982
ATOM    982  OP1 A   B  37     -38.569  28.803   5.277  0.00  0.00    +0.000 OA
ATOM    983  H   A   B  37     -39.180  29.327   4.736  0.00  0.00    +0.000 HD
ENDBRANCH 980 982
BRANCH 980 984
ATOM    984  O3' U   B  36     -37.355  27.907   3.291  0.00  0.00    +0.000 OA
BRANCH 984 987
ATOM    985  C4' U   B  36     -36.829  27.839   0.913  0.00  0.00    +0.000 C 
ATOM    986  O4' U   B  36     -35.672  27.393   0.153  0.00  0.00    +0.000 OA
ATOM    987  C3' U   B  36     -36.313  27.948   2.332  0.00  0.00    +0.000 C 
ATOM    988  C2' U   B  36     -35.358  26.760   2.422  0.00  0.00    +0.000 C 
ATOM    989  C1' U   B  36     -34.744  26.761   1.016  0.00  0.00    +0.000 C 
BRANCH 989 990
ATOM    990  N1  U   B  36     -33.455  27.483   0.950  0.00  0.00    +0.000 N 
ATOM    991  C2  U   B  36     -32.322  26.813   1.381  0.00  0.00    +0.000 A 
ATOM    992  O2  U   B  36     -32.347  25.672   1.809  0.00  0.00    +0.000 OA
ATOM    993  N3  U   B  36     -31.151  27.529   1.297  0.00  0.00    +0.000 N 
ATOM    994  C4  U   B  36     -30.997  28.818   0.835  0.00  0.00    +0.000 A 
ATOM    995  O4  U   B  36     -29.873  29.322   0.823  0.00  0.00    +0.000 OA
ATOM    996  C5  U   B  36     -32.210  29.444   0.407  0.00  0.00    +0.000 A 
ATOM    997  C6  U   B  36     -33.368  28.771   0.478  0.00  0.00    +0.000 A 
ATOM    998  H   U   B  36     -30.334  27.071   1.600  0.00  0.00    +0.000 HD
ENDBRANCH 989 990
BRANCH 988 999
ATOM    999  O2' U   B  36     -36.043  25.548   2.628  0.00  0.00    +0.000 OA
ATOM   1000  H   U   B  36     -36.693  25.419   1.919  0.00  0.00    +0.000 HD
ENDBRANCH 988 999
BRANCH 9851001
ATOM   1001  C5' U   B  36     -37.388  29.111   0.313  0.00  0.00    +0.000 C 
BRANCH10011002
ATOM   1002  O5' U   B  36     -36.419  30.156   0.331  0.00  0.00    +0.000 OA
BRANCH10021003
ATOM   1003  P   U   B  36     -36.721  31.570  -0.332  0.00  0.00    +0.000 P 
ATOM   1004  OP2 U   B  36     -35.525  32.434  -0.134  0.00  0.00    +0.000 OA
BRANCH10031005
ATOM   1005  OP1 U   B  36     -38.048  32.029   0.147  0.00  0.00    +0.000 OA
ATOM   1006  H   U   B  36     -38.253  32.892  -0.246  0.00  0.00    +0.000 HD
ENDBRANCH10031005
BRANCH10031007
ATOM   1007  O3' A   B  35     -36.872  31.240  -1.885  0.00  0.00    +0.000 OA
BRANCH10071010
ATOM   1008  C4' A   B  35     -35.780  31.256  -4.081  0.00  0.00    +0.000 C 
ATOM   1009  O4' A   B  35     -34.834  30.362  -4.725  0.00  0.00    +0.000 OA
ATOM   1010  C3' A   B  35     -35.745  30.815  -2.630  0.00  0.00    +0.000 C 
ATOM   1011  C2' A   B  35     -35.661  29.305  -2.776  0.00  0.00    +0.000 C 
ATOM   1012  C1' A   B  35     -34.713  29.176  -3.963  0.00  0.00    +0.000 C 
BRANCH10121013
ATOM   1013  N9  A   B  35     -33.319  29.016  -3.523  0.00  0.00    +0.000 N 
ATOM   1014  C8  A   B  35     -32.284  29.917  -3.577  0.00  0.00    +0.000 A 
ATOM   1015  N7  A   B  35     -31.157  29.448  -3.087  0.00  0.00    +0.000 NA
ATOM   1016  C5  A   B  35     -31.475  28.160  -2.681  0.00  0.00    +0.000 A 
ATOM   1017  C6  A   B  35     -30.725  27.138  -2.079  0.00  0.00    +0.000 A 
ATOM   1018  N6  A   B  35     -29.433  27.260  -1.760  0.00  0.00    +0.000 N 
ATOM   1019  N1  A   B  35     -31.349  25.976  -1.804  0.00  0.00    +0.000 NA
ATOM   1020  C2  A   B  35     -32.639  25.853  -2.118  0.00  0.00    +0.000 A 
ATOM   1021  N3  A   B  35     -33.452  26.738  -2.689  0.00  0.00    +0.000 NA
ATOM   1022  C4  A   B  35     -32.800  27.883  -2.947  0.00  0.00    +0.000 A 
ATOM   1023  H   A   B  35     -28.956  28.100  -1.951  0.00  0.00    +0.000 HD
ATOM   1024  H   A   B  35     -28.958  26.510  -1.334  0.00  0.00    +0.000 HD
ENDBRANCH10121013
BRANCH10111025
ATOM   1025  O2' A   B  35     -36.909  28.737  -3.113  0.00  0.00    +0.000 OA
ATOM   1026  H   A   B  35     -37.243  29.148  -3.926  0.00  0.00    +0.000 HD
ENDBRANCH10111025
BRANCH10081027
ATOM   1027  C5' A   B  35     -35.417  32.692  -4.368  0.00  0.00    +0.000 C 
BRANCH10271028
ATOM   1028  O5' A   B  35     -34.020  32.925  -4.214  0.00  0.00    +0.000 OA
BRANCH10281029
ATOM   1029  P   A   B  35     -33.327  34.189  -4.899  0.00  0.00    +0.000 P 
ATOM   1030  OP1 A   B  35     -34.248  35.342  -4.771  0.00  0.00    +0.000 OA
BRANCH10291031
ATOM   1031  OP2 A   B  35     -31.946  34.293  -4.365  0.00  0.00    +0.000 OA
ATOM   1032  H   A   B  35     -31.501  35.056  -4.766  0.00  0.00    +0.000 HD
ENDBRANCH10291031
BRANCH10291033
ATOM   1033  O3' A   B  34     -33.252  33.797  -6.440  0.00  0.00    +0.000 OA
BRANCH10331036
ATOM   1034  C4' A   B  34     -31.762  33.086  -8.254  0.00  0.00    +0.000 C 
ATOM   1035  O4' A   B  34     -31.272  31.792  -8.692  0.00  0.00    +0.000 OA
ATOM   1036  C3' A   B  34     -32.341  32.804  -6.882  0.00  0.00    +0.000 C 
ATOM   1037  C2' A   B  34     -32.983  31.444  -7.092  0.00  0.00    +0.000 C 
ATOM   1038  C1' A   B  34     -31.954  30.768  -7.995  0.00  0.00    +0.000 C 
BRANCH10381039
ATOM   1039  N9  A   B  34     -30.981  29.986  -7.217  0.00  0.00    +0.000 N 
ATOM   1040  C8  A   B  34     -29.715  30.339  -6.828  0.00  0.00    +0.000 A 
ATOM   1041  N7  A   B  34     -29.104  29.408  -6.131  0.00  0.00    +0.000 NA
ATOM   1042  C5  A   B  34     -30.032  28.380  -6.056  0.00  0.00    +0.000 A 
ATOM   1043  C6  A   B  34     -30.001  27.115  -5.453  0.00  0.00    +0.000 A 
ATOM   1044  N6  A   B  34     -28.949  26.645  -4.772  0.00  0.00    +0.000 N 
ATOM   1045  N1  A   B  34     -31.094  26.337  -5.563  0.00  0.00    +0.000 NA
ATOM   1046  C2  A   B  34     -32.148  26.803  -6.239  0.00  0.00    +0.000 A 
ATOM   1047  N3  A   B  34     -32.299  27.975  -6.852  0.00  0.00    +0.000 NA
ATOM   1048  C4  A   B  34     -31.192  28.725  -6.720  0.00  0.00    +0.000 A 
ATOM   1049  H   A   B  34     -28.138  27.195  -4.678  0.00  0.00    +0.000 HD
ATOM   1050  H   A   B  34     -28.986  25.749  -4.365  0.00  0.00    +0.000 HD
ENDBRANCH10381039
BRANCH10371051
ATOM   1051  O2' A   B  34     -34.213  31.544  -7.781  0.00  0.00    +0.000 OA
ATOM   1052  H   A   B  34     -34.074  32.001  -8.625  0.00  0.00    +0.000 HD
ENDBRANCH10371051
BRANCH10341053
ATOM   1053  C5' A   B  34     -30.650  34.105  -8.315  0.00  0.00    +0.000 C 
BRANCH10531054
ATOM   1054  O5' A   B  34     -29.586  33.763  -7.430  0.00  0.00    +0.000 OA
BRANCH10541055
ATOM   1055  P   A   B  34     -28.189  34.520  -7.512  0.00  0.00    +0.000 P 
ATOM   1056  OP1 A   B  34     -28.450  35.976  -7.564  0.00  0.00    +0.000 OA
BRANCH10551057
ATOM   1057  OP2 A   B  34     -27.310  33.969  -6.450  0.00  0.00    +0.000 OA
ATOM   1058  H   A   B  34     -26.449  34.415  -6.479  0.00  0.00    +0.000 HD
ENDBRANCH10551057
BRANCH10551059
ATOM   1059  O3' U   B  33     -27.618  34.068  -8.932  0.00  0.00    +0.000 OA
BRANCH10591062
ATOM   1060  C4' U   B  33     -25.891  32.748 -10.058  0.00  0.00    +0.000 C 
ATOM   1061  O4' U   B  33     -25.793  31.355 -10.458  0.00  0.00    +0.000 OA
ATOM   1062  C3' U   B  33     -27.064  32.771  -9.101  0.00  0.00    +0.000 C 
ATOM   1063  C2' U   B  33     -28.019  31.781  -9.753  0.00  0.00    +0.000 C 
ATOM   1064  C1' U   B  33     -27.039  30.719 -10.264  0.00  0.00    +0.000 C 
BRANCH10641065
ATOM   1065  N1  U   B  33     -26.863  29.610  -9.303  0.00  0.00    +0.000 N 
ATOM   1066  C2  U   B  33     -27.800  28.593  -9.335  0.00  0.00    +0.000 A 
ATOM   1067  O2  U   B  33     -28.738  28.580 -10.115  0.00  0.00    +0.000 OA
ATOM   1068  N3  U   B  33     -27.602  27.586  -8.418  0.00  0.00    +0.000 N 
ATOM   1069  C4  U   B  33     -26.583  27.498  -7.495  0.00  0.00    +0.000 A 
ATOM   1070  O4  U   B  33     -26.543  26.531  -6.735  0.00  0.00    +0.000 OA
ATOM   1071  C5  U   B  33     -25.658  28.587  -7.523  0.00  0.00    +0.000 A 
ATOM   1072  C6  U   B  33     -25.827  29.581  -8.403  0.00  0.00    +0.000 A 
ATOM   1073  H   U   B  33     -28.257  26.851  -8.422  0.00  0.00    +0.000 HD
ENDBRANCH10641065
BRANCH10631074
ATOM   1074  O2' U   B  33     -28.699  32.347 -10.853  0.00  0.00    +0.000 OA
ATOM   1075  H   U   B  33     -28.053  32.683 -11.494  0.00  0.00    +0.000 HD
ENDBRANCH10631074
BRANCH10601076
ATOM   1076  C5' U   B  33     -24.572  33.216  -9.491  0.00  0.00    +0.000 C 
BRANCH10761077
ATOM   1077  O5' U   B  33     -24.248  32.524  -8.292  0.00  0.00    +0.000 OA
BRANCH10771078
ATOM   1078  P   U   B  33     -22.802  32.646  -7.637  0.00  0.00    +0.000 P 
ATOM   1079  OP1 U   B  33     -22.476  34.081  -7.490  0.00  0.00    +0.000 OA
BRANCH10781080
ATOM   1080  OP2 U   B  33     -22.763  31.756  -6.449  0.00  0.00    +0.000 OA
ATOM   1081  H   U   B  33     -23.000  30.853  -6.713  0.00  0.00    +0.000 HD
ENDBRANCH10781080
BRANCH10781082
ATOM   1082  O3' A   B  32     -21.839  32.044  -8.752  0.00  0.00    +0.000 OA
BRANCH10821085
ATOM   1083  C4' A   B  32     -20.373  30.180  -9.343  0.00  0.00    +0.000 C 
ATOM   1084  O4' A   B  32     -20.594  28.894  -9.979  0.00  0.00    +0.000 OA
ATOM   1085  C3' A   B  32     -21.764  30.638  -8.952  0.00  0.00    +0.000 C 
ATOM   1086  C2' A   B  32     -22.599  30.148 -10.124  0.00  0.00    +0.000 C 
ATOM   1087  C1' A   B  32     -21.932  28.808 -10.425  0.00  0.00    +0.000 C 
BRANCH10871088
ATOM   1088  N9  A   B  32     -22.585  27.689  -9.728  0.00  0.00    +0.000 N 
ATOM   1089  C8  A   B  32     -22.210  27.084  -8.557  0.00  0.00    +0.000 A 
ATOM   1090  N7  A   B  32     -23.005  26.107  -8.194  0.00  0.00    +0.000 NA
ATOM   1091  C5  A   B  32     -23.969  26.067  -9.191  0.00  0.00    +0.000 A 
ATOM   1092  C6  A   B  32     -25.095  25.254  -9.390  0.00  0.00    +0.000 A 
ATOM   1093  N6  A   B  32     -25.458  24.275  -8.547  0.00  0.00    +0.000 N 
ATOM   1094  N1  A   B  32     -25.848  25.475 -10.483  0.00  0.00    +0.000 NA
ATOM   1095  C2  A   B  32     -25.488  26.453 -11.322  0.00  0.00    +0.000 A 
ATOM   1096  N3  A   B  32     -24.452  27.284 -11.244  0.00  0.00    +0.000 NA
ATOM   1097  C4  A   B  32     -23.721  27.037 -10.142  0.00  0.00    +0.000 A 
ATOM   1098  H   A   B  32     -26.259  23.734  -8.736  0.00  0.00    +0.000 HD
ATOM   1099  H   A   B  32     -24.924  24.097  -7.740  0.00  0.00    +0.000 HD
ENDBRANCH10871088
BRANCH10861100
ATOM   1100  O2' A   B  32     -22.471  30.993 -11.253  0.00  0.00    +0.000 OA
ATOM   1101  H   A   B  32     -21.535  31.067 -11.497  0.00  0.00    +0.000 HD
ENDBRANCH10861100
BRANCH10831102
ATOM   1102  C5' A   B  32     -19.388  30.030  -8.207  0.00  0.00    +0.000 C 
BRANCH11021103
ATOM   1103  O5' A   B  32     -19.903  29.180  -7.192  0.00  0.00    +0.000 OA
BRANCH11031104
ATOM   1104  P   A   B  32     -18.978  28.675  -5.998  0.00  0.00    +0.000 P 
ATOM   1105  OP1 A   B  32     -18.301  29.853  -5.404  0.00  0.00    +0.000 OA
BRANCH11041106
ATOM   1106  OP2 A   B  32     -19.791  27.779  -5.138  0.00  0.00    +0.000 OA
ATOM   1107  H   A   B  32     -20.162  27.063  -5.677  0.00  0.00    +0.000 HD
ENDBRANCH11041106
BRANCH11041108
ATOM   1108  O3' A   B  31     -17.873  27.814  -6.731  0.00  0.00    +0.000 OA
BRANCH11081111
ATOM   1109  C4' A   B  31     -16.984  25.583  -7.185  0.00  0.00    +0.000 C 
ATOM   1110  O4' A   B  31     -17.331  24.540  -8.135  0.00  0.00    +0.000 OA
ATOM   1111  C3' A   B  31     -18.181  26.510  -7.209  0.00  0.00    +0.000 C 
ATOM   1112  C2' A   B  31     -18.574  26.480  -8.677  0.00  0.00    +0.000 C 
ATOM   1113  C1' A   B  31     -18.319  25.015  -9.026  0.00  0.00    +0.000 C 
BRANCH11131114
ATOM   1114  N9  A   B  31     -19.525  24.187  -8.876  0.00  0.00    +0.000 N 
ATOM   1115  C8  A   B  31     -19.871  23.372  -7.827  0.00  0.00    +0.000 A 
ATOM   1116  N7  A   B  31     -21.019  22.760  -7.995  0.00  0.00    +0.000 NA
ATOM   1117  C5  A   B  31     -21.459  23.201  -9.233  0.00  0.00    +0.000 A 
ATOM   1118  C6  A   B  31     -22.612  22.923  -9.984  0.00  0.00    +0.000 A 
ATOM   1119  N1  A   B  31     -22.746  23.532 -11.179  0.00  0.00    +0.000 NA
ATOM   1120  C2  A   B  31     -21.782  24.362 -11.590  0.00  0.00    +0.000 A 
ATOM   1121  N3  A   B  31     -20.648  24.703 -10.974  0.00  0.00    +0.000 NA
ATOM   1122  C4  A   B  31     -20.548  24.081  -9.786  0.00  0.00    +0.000 A 
BRANCH11181123
ATOM   1123  N6  A   B  31     -23.577  22.094  -9.571  0.00  0.00    +0.000 N 
ATOM   1124  H   A   B  31     -24.365  21.935 -10.139  0.00  0.00    +0.000 HD
ATOM   1125  H   A   B  31     -23.499  21.643  -8.699  0.00  0.00    +0.000 HD
ENDBRANCH11181123
ENDBRANCH11131114
BRANCH11121126
ATOM   1126  O2' A   B  31     -17.727  27.297  -9.466  0.00  0.00    +0.000 OA
ATOM   1127  H   A   B  31     -16.805  27.019  -9.345  0.00  0.00    +0.000 HD
ENDBRANCH11121126
BRANCH11091128
ATOM   1128  C5' A   B  31     -16.655  24.968  -5.842  0.00  0.00    +0.000 C 
BRANCH11281129
ATOM   1129  O5' A   B  31     -17.770  24.264  -5.317  0.00  0.00    +0.000 OA
BRANCH11291130
ATOM   1130  P   A   B  31     -17.611  23.300  -4.059  0.00  0.00    +0.000 P 
ATOM   1131  OP2 A   B  31     -18.933  22.684  -3.788  0.00  0.00    +0.000 OA
BRANCH11301132
ATOM   1132  OP1 A   B  31     -16.911  24.049  -2.988  0.00  0.00    +0.000 OA
ATOM   1133  H   A   B  31     -16.066  24.385  -3.327  0.00  0.00    +0.000 HD
ENDBRANCH11301132
BRANCH11301134
ATOM   1134  O3' A   B  30     -16.630  22.174  -4.572  0.00  0.00    +0.000 OA
BRANCH11341137
ATOM   1135  C4' A   B  30     -16.355  19.849  -5.270  0.00  0.00    +0.000 C 
ATOM   1136  O4' A   B  30     -16.583  19.145  -6.520  0.00  0.00    +0.000 OA
ATOM   1137  C3' A   B  30     -17.097  21.157  -5.448  0.00  0.00    +0.000 C 
ATOM   1138  C2' A   B  30     -16.850  21.461  -6.918  0.00  0.00    +0.000 C 
ATOM   1139  C1' A   B  30     -16.937  20.064  -7.529  0.00  0.00    +0.000 C 
BRANCH11391140
ATOM   1140  N9  A   B  30     -18.292  19.744  -8.002  0.00  0.00    +0.000 N 
ATOM   1141  C8  A   B  30     -19.254  18.990  -7.377  0.00  0.00    +0.000 A 
ATOM   1142  N7  A   B  30     -20.367  18.886  -8.063  0.00  0.00    +0.000 NA
ATOM   1143  C5  A   B  30     -20.125  19.619  -9.213  0.00  0.00    +0.000 A 
ATOM   1144  C6  A   B  30     -20.909  19.900 -10.340  0.00  0.00    +0.000 A 
ATOM   1145  N1  A   B  30     -20.369  20.665 -11.308  0.00  0.00    +0.000 NA
ATOM   1146  C2  A   B  30     -19.122  21.113 -11.149  0.00  0.00    +0.000 A 
ATOM   1147  N3  A   B  30     -18.279  20.917 -10.134  0.00  0.00    +0.000 NA
ATOM   1148  C4  A   B  30     -18.849  20.154  -9.187  0.00  0.00    +0.000 A 
BRANCH11441149
ATOM   1149  N6  A   B  30     -22.159  19.451 -10.494  0.00  0.00    +0.000 N 
ATOM   1150  H   A   B  30     -22.667  19.678 -11.306  0.00  0.00    +0.000 HD
ATOM   1151  H   A   B  30     -22.571  18.894  -9.795  0.00  0.00    +0.000 HD
ENDBRANCH11441149
ENDBRANCH11391140
BRANCH11381152
ATOM   1152  O2' A   B  30     -15.553  21.985  -7.137  0.00  0.00    +0.000 OA
ATOM   1153  H   A   B  30     -14.891  21.366  -6.791  0.00  0.00    +0.000 HD
ENDBRANCH11381152
BRANCH11351154
ATOM   1154  C5' A   B  30     -16.803  18.992  -4.108  0.00  0.00    +0.000 C 
BRANCH11541155
ATOM   1155  O5' A   B  30     -18.183  18.671  -4.215  0.00  0.00    +0.000 OA
BRANCH11551156
ATOM   1156  P   A   B  30     -18.828  17.530  -3.309  0.00  0.00    +0.000 P 
ATOM   1157  OP2 A   B  30     -20.259  17.409  -3.679  0.00  0.00    +0.000 OA
BRANCH11561158
ATOM   1158  OP1 A   B  30     -18.450  17.792  -1.900  0.00  0.00    +0.000 OA
ATOM   1159  H   A   B  30     -17.484  17.842  -1.828  0.00  0.00    +0.000 HD
ENDBRANCH11561158
BRANCH11561160
ATOM   1160  O3' A   B  29     -18.081  16.217  -3.764  0.00  0.00    +0.000 OA
BRANCH11601163
ATOM   1161  C4' A   B  29     -18.213  14.102  -4.986  0.00  0.00    +0.000 C 
ATOM   1162  O4' A   B  29     -18.086  13.747  -6.389  0.00  0.00    +0.000 OA
ATOM   1163  C3' A   B  29     -18.397  15.606  -5.008  0.00  0.00    +0.000 C 
ATOM   1164  C2' A   B  29     -17.471  16.018  -6.141  0.00  0.00    +0.000 C 
ATOM   1165  C1' A   B  29     -17.687  14.876  -7.132  0.00  0.00    +0.000 C 
BRANCH11651166
ATOM   1166  N9  A   B  29     -18.733  15.184  -8.118  0.00  0.00    +0.000 N 
ATOM   1167  C8  A   B  29     -20.042  14.776  -8.119  0.00  0.00    +0.000 A 
ATOM   1168  N7  A   B  29     -20.726  15.218  -9.148  0.00  0.00    +0.000 NA
ATOM   1169  C5  A   B  29     -19.809  15.965  -9.870  0.00  0.00    +0.000 A 
ATOM   1170  C6  A   B  29     -19.908  16.694 -11.062  0.00  0.00    +0.000 A 
ATOM   1171  N1  A   B  29     -18.807  17.327 -11.508  0.00  0.00    +0.000 NA
ATOM   1172  C2  A   B  29     -17.680  17.227 -10.799  0.00  0.00    +0.000 A 
ATOM   1173  N3  A   B  29     -17.456  16.568  -9.661  0.00  0.00    +0.000 NA
ATOM   1174  C4  A   B  29     -18.574  15.952  -9.245  0.00  0.00    +0.000 A 
BRANCH11701175
ATOM   1175  N6  A   B  29     -21.039  16.796 -11.768  0.00  0.00    +0.000 N 
ATOM   1176  H   A   B  29     -21.054  17.322 -12.600  0.00  0.00    +0.000 HD
ATOM   1177  H   A   B  29     -21.857  16.345 -11.456  0.00  0.00    +0.000 HD
ENDBRANCH11701175
ENDBRANCH11651166
BRANCH11641178
ATOM   1178  O2' A   B  29     -16.115  16.028  -5.735  0.00  0.00    +0.000 OA
ATOM   1179  H   A   B  29     -15.876  15.155  -5.386  0.00  0.00    +0.000 HD
ENDBRANCH11641178
BRANCH11611180
ATOM   1180  C5' A   B  29     -19.334  13.310  -4.355  0.00  0.00    +0.000 C 
BRANCH11801181
ATOM   1181  O5' A   B  29     -20.577  13.597  -4.982  0.00  0.00    +0.000 OA
BRANCH11811182
ATOM   1182  P   A   B  29     -21.844  12.664  -4.745  0.00  0.00    +0.000 P 
ATOM   1183  OP2 A   B  29     -22.960  13.188  -5.565  0.00  0.00    +0.000 OA
BRANCH11821184
ATOM   1184  OP1 A   B  29     -22.023  12.495  -3.283  0.00  0.00    +0.000 OA
ATOM   1185  H   A   B  29     -22.792  11.928  -3.115  0.00  0.00    +0.000 HD
ENDBRANCH11821184
BRANCH11821186
ATOM   1186  O3' U   B  28     -21.382  11.271  -5.334  0.00  0.00    +0.000 OA
BRANCH11861189
ATOM   1187  C4' U   B  28     -21.676   9.618  -7.109  0.00  0.00    +0.000 C 
ATOM   1188  O4' U   B  28     -21.165   9.500  -8.467  0.00  0.00    +0.000 OA
ATOM   1189  C3' U   B  28     -21.381  11.057  -6.738  0.00  0.00    +0.000 C 
ATOM   1190  C2' U   B  28     -20.022  11.278  -7.391  0.00  0.00    +0.000 C 
ATOM   1191  C1' U   B  28     -20.186  10.493  -8.697  0.00  0.00    +0.000 C 
BRANCH11911192
ATOM   1192  N1  U   B  28     -20.624  11.350  -9.822  0.00  0.00    +0.000 N 
ATOM   1193  C2  U   B  28     -19.651  12.069 -10.488  0.00  0.00    +0.000 A 
ATOM   1194  O2  U   B  28     -18.471  12.020 -10.185  0.00  0.00    +0.000 OA
ATOM   1195  N3  U   B  28     -20.104  12.849 -11.525  0.00  0.00    +0.000 N 
ATOM   1196  C4  U   B  28     -21.404  12.980 -11.951  0.00  0.00    +0.000 A 
ATOM   1197  O4  U   B  28     -21.657  13.723 -12.896  0.00  0.00    +0.000 OA
ATOM   1198  C5  U   B  28     -22.354  12.207 -11.214  0.00  0.00    +0.000 A 
ATOM   1199  C6  U   B  28     -21.940  11.438 -10.200  0.00  0.00    +0.000 A 
ATOM   1200  H   U   B  28     -19.426  13.369 -12.014  0.00  0.00    +0.000 HD
ENDBRANCH11911192
BRANCH11901201
ATOM   1201  O2' U   B  28     -18.977  10.700  -6.637  0.00  0.00    +0.000 OA
ATOM   1202  H   U   B  28     -19.155   9.755  -6.509  0.00  0.00    +0.000 HD
ENDBRANCH11901201
BRANCH11871203
ATOM   1203  C5' U   B  28     -23.130   9.214  -7.069  0.00  0.00    +0.000 C 
BRANCH12031204
ATOM   1204  O5' U   B  28     -23.929  10.097  -7.837  0.00  0.00    +0.000 OA
BRANCH12041205
ATOM   1205  P   U   B  28     -25.413   9.703  -8.252  0.00  0.00    +0.000 P 
ATOM   1206  OP2 U   B  28     -25.922  10.744  -9.176  0.00  0.00    +0.000 OA
BRANCH12051207
ATOM   1207  OP1 U   B  28     -26.167   9.377  -7.018  0.00  0.00    +0.000 OA
ATOM   1208  H   U   B  28     -27.077   9.133  -7.250  0.00  0.00    +0.000 HD
ENDBRANCH12051207
BRANCH12051209
ATOM   1209  O3' U   B  27     -25.204   8.360  -9.063  0.00  0.00    +0.000 OA
BRANCH12091212
ATOM   1210  C4' U   B  27     -25.415   7.317 -11.255  0.00  0.00    +0.000 C 
ATOM   1211  O4' U   B  27     -24.529   7.196 -12.403  0.00  0.00    +0.000 OA
ATOM   1212  C3' U   B  27     -24.774   8.401 -10.415  0.00  0.00    +0.000 C 
ATOM   1213  C2' U   B  27     -23.290   8.112 -10.598  0.00  0.00    +0.000 C 
ATOM   1214  C1' U   B  27     -23.245   7.690 -12.073  0.00  0.00    +0.000 C 
BRANCH12141215
ATOM   1215  N1  U   B  27     -22.917   8.815 -12.981  0.00  0.00    +0.000 N 
ATOM   1216  C2  U   B  27     -21.585   9.161 -13.118  0.00  0.00    +0.000 A 
ATOM   1217  O2  U   B  27     -20.688   8.587 -12.529  0.00  0.00    +0.000 OA
ATOM   1218  N3  U   B  27     -21.337  10.207 -13.976  0.00  0.00    +0.000 N 
ATOM   1219  C4  U   B  27     -22.265  10.926 -14.693  0.00  0.00    +0.000 A 
ATOM   1220  O4  U   B  27     -21.886  11.841 -15.422  0.00  0.00    +0.000 OA
ATOM   1221  C5  U   B  27     -23.618  10.512 -14.498  0.00  0.00    +0.000 A 
ATOM   1222  C6  U   B  27     -23.890   9.496 -13.670  0.00  0.00    +0.000 A 
ATOM   1223  H   U   B  27     -20.395  10.469 -14.089  0.00  0.00    +0.000 HD
ENDBRANCH12141215
BRANCH12131224
ATOM   1224  O2' U   B  27     -22.866   7.027  -9.800  0.00  0.00    +0.000 OA
ATOM   1225  H   U   B  27     -23.404   6.246 -10.004  0.00  0.00    +0.000 HD
ENDBRANCH12131224
BRANCH12101226
ATOM   1226  C5' U   B  27     -26.825   7.599 -11.720  0.00  0.00    +0.000 C 
BRANCH12261227
ATOM   1227  O5' U   B  27     -26.902   8.845 -12.396  0.00  0.00    +0.000 OA
BRANCH12271228
ATOM   1228  P   U   B  27     -28.198   9.245 -13.230  0.00  0.00    +0.000 P 
ATOM   1229  OP2 U   B  27     -27.916  10.522 -13.928  0.00  0.00    +0.000 OA
BRANCH12281230
ATOM   1230  OP1 U   B  27     -29.374   9.141 -12.333  0.00  0.00    +0.000 OA
ATOM   1231  H   U   B  27     -30.176   9.381 -12.823  0.00  0.00    +0.000 HD
ENDBRANCH12281230
BRANCH12281232
ATOM   1232  O3' U   B  26     -28.299   8.088 -14.306  0.00  0.00    +0.000 OA
BRANCH12321235
ATOM   1233  C4' U   B  26     -28.069   7.468 -16.656  0.00  0.00    +0.000 C 
ATOM   1234  O4' U   B  26     -26.939   7.093 -17.492  0.00  0.00    +0.000 OA
ATOM   1235  C3' U   B  26     -27.426   8.074 -15.427  0.00  0.00    +0.000 C 
ATOM   1236  C2' U   B  26     -26.202   7.187 -15.238  0.00  0.00    +0.000 C 
ATOM   1237  C1' U   B  26     -25.782   6.941 -16.692  0.00  0.00    +0.000 C 
BRANCH12371238
ATOM   1238  N1  U   B  26     -24.750   7.898 -17.157  0.00  0.00    +0.000 N 
ATOM   1239  C2  U   B  26     -23.435   7.638 -16.807  0.00  0.00    +0.000 A 
ATOM   1240  O2  U   B  26     -23.103   6.672 -16.143  0.00  0.00    +0.000 OA
ATOM   1241  N3  U   B  26     -22.517   8.556 -17.264  0.00  0.00    +0.000 N 
ATOM   1242  C4  U   B  26     -22.772   9.679 -18.016  0.00  0.00    +0.000 A 
ATOM   1243  O4  U   B  26     -21.838  10.407 -18.350  0.00  0.00    +0.000 OA
ATOM   1244  C5  U   B  26     -24.153   9.877 -18.337  0.00  0.00    +0.000 A 
ATOM   1245  C6  U   B  26     -25.069   9.002 -17.906  0.00  0.00    +0.000 A 
ATOM   1246  H   U   B  26     -21.576   8.391 -17.027  0.00  0.00    +0.000 HD
ENDBRANCH12371238
BRANCH12361247
ATOM   1247  O2' U   B  26     -26.537   5.951 -14.643  0.00  0.00    +0.000 OA
ATOM   1248  H   U   B  26     -27.213   5.507 -15.179  0.00  0.00    +0.000 HD
ENDBRANCH12361247
BRANCH12331249
ATOM   1249  C5' U   B  26     -29.002   8.373 -17.426  0.00  0.00    +0.000 C 
BRANCH12491250
ATOM   1250  O5' U   B  26     -28.352   9.575 -17.811  0.00  0.00    +0.000 OA
BRANCH12501251
ATOM   1251  P   U   B  26     -28.989  10.538 -18.907  0.00  0.00    +0.000 P 
ATOM   1252  OP2 U   B  26     -28.020  11.632 -19.182  0.00  0.00    +0.000 OA
BRANCH12511253
ATOM   1253  OP1 U   B  26     -30.370  10.868 -18.480  0.00  0.00    +0.000 OA
ATOM   1254  H   U   B  26     -30.779  11.456 -19.134  0.00  0.00    +0.000 HD
ENDBRANCH12511253
BRANCH12511255
ATOM   1255  O3' U   B  25     -29.079   9.603 -20.183  0.00  0.00    +0.000 OA
BRANCH12551258
ATOM   1256  C4' U   B  25     -28.218   9.122 -22.417  0.00  0.00    +0.000 C 
ATOM   1257  O4' U   B  25     -27.065   8.388 -22.916  0.00  0.00    +0.000 OA
ATOM   1258  C3' U   B  25     -27.914   9.323 -20.949  0.00  0.00    +0.000 C 
ATOM   1259  C2' U   B  25     -27.243   8.006 -20.580  0.00  0.00    +0.000 C 
ATOM   1260  C1' U   B  25     -26.426   7.720 -21.845  0.00  0.00    +0.000 C 
BRANCH12601261
ATOM   1261  N1  U   B  25     -25.031   8.209 -21.741  0.00  0.00    +0.000 N 
ATOM   1262  C2  U   B  25     -24.119   7.400 -21.085  0.00  0.00    +0.000 A 
ATOM   1263  O2  U   B  25     -24.414   6.320 -20.602  0.00  0.00    +0.000 OA
ATOM   1264  N3  U   B  25     -22.837   7.899 -21.016  0.00  0.00    +0.000 N 
ATOM   1265  C4  U   B  25     -22.388   9.097 -21.521  0.00  0.00    +0.000 A 
ATOM   1266  O4  U   B  25     -21.204   9.406 -21.376  0.00  0.00    +0.000 OA
ATOM   1267  C5  U   B  25     -23.388   9.874 -22.183  0.00  0.00    +0.000 A 
ATOM   1268  C6  U   B  25     -24.643   9.416 -22.268  0.00  0.00    +0.000 A 
ATOM   1269  H   U   B  25     -22.171   7.338 -20.556  0.00  0.00    +0.000 HD
ENDBRANCH12601261
BRANCH12591270
ATOM   1270  O2' U   B  25     -28.188   6.968 -20.401  0.00  0.00    +0.000 OA
ATOM   1271  H   U   B  25     -28.724   6.876 -21.204  0.00  0.00    +0.000 HD
ENDBRANCH12591270
BRANCH12561272
ATOM   1272  C5' U   B  25     -28.412  10.383 -23.227  0.00  0.00    +0.000 C 
BRANCH12721273
ATOM   1273  O5' U   B  25     -27.305  11.262 -23.089  0.00  0.00    +0.000 OA
BRANCH12731274
ATOM   1274  P   U   B  25     -27.092  12.481 -24.096  0.00  0.00    +0.000 P 
ATOM   1275  OP1 U   B  25     -28.340  13.284 -24.108  0.00  0.00    +0.000 OA
BRANCH12741276
ATOM   1276  OP2 U   B  25     -25.796  13.131 -23.775  0.00  0.00    +0.000 OA
ATOM   1277  H   U   B  25     -25.650  13.876 -24.379  0.00  0.00    +0.000 HD
ENDBRANCH12741276
BRANCH12741278
ATOM   1278  O3' U   B  24     -26.962  11.750 -25.489  0.00  0.00    +0.000 OA
BRANCH12781281
ATOM   1279  C4' U   B  24     -25.478  11.235 -27.354  0.00  0.00    +0.000 C 
ATOM   1280  O4' U   B  24     -24.517  10.178 -27.614  0.00  0.00    +0.000 OA
ATOM   1281  C3' U   B  24     -25.735  11.136 -25.868  0.00  0.00    +0.000 C 
ATOM   1282  C2' U   B  24     -25.704   9.633 -25.634  0.00  0.00    +0.000 C 
ATOM   1283  C1' U   B  24     -24.598   9.197 -26.598  0.00  0.00    +0.000 C 
BRANCH12831284
ATOM   1284  N1  U   B  24     -23.275   9.081 -25.941  0.00  0.00    +0.000 N 
ATOM   1285  C2  U   B  24     -23.018   7.930 -25.217  0.00  0.00    +0.000 A 
ATOM   1286  O2  U   B  24     -23.824   7.026 -25.102  0.00  0.00    +0.000 OA
ATOM   1287  N3  U   B  24     -21.775   7.874 -24.630  0.00  0.00    +0.000 N 
ATOM   1288  C4  U   B  24     -20.786   8.828 -24.690  0.00  0.00    +0.000 A 
ATOM   1289  O4  U   B  24     -19.721   8.632 -24.106  0.00  0.00    +0.000 OA
ATOM   1290  C5  U   B  24     -21.126   9.985 -25.458  0.00  0.00    +0.000 A 
ATOM   1291  C6  U   B  24     -22.329  10.069 -26.043  0.00  0.00    +0.000 A 
ATOM   1292  H   U   B  24     -21.571   7.063 -24.111  0.00  0.00    +0.000 HD
ENDBRANCH12831284
BRANCH12821293
ATOM   1293  O2' U   B  24     -26.917   9.017 -26.020  0.00  0.00    +0.000 OA
ATOM   1294  H   U   B  24     -27.102   9.222 -26.950  0.00  0.00    +0.000 HD
ENDBRANCH12821293
BRANCH12791295
ATOM   1295  C5' U   B  24     -24.934  12.554 -27.838  0.00  0.00    +0.000 C 
BRANCH12951296
ATOM   1296  O5' U   B  24     -23.746  12.915 -27.135  0.00  0.00    +0.000 OA
BRANCH12961297
ATOM   1297  P   U   B  24     -22.892  14.185 -27.566  0.00  0.00    +0.000 P 
ATOM   1298  OP1 U   B  24     -23.801  15.351 -27.608  0.00  0.00    +0.000 OA
BRANCH12971299
ATOM   1299  OP2 U   B  24     -21.671  14.230 -26.719  0.00  0.00    +0.000 OA
ATOM   1300  H   U   B  24     -21.134  14.999 -26.966  0.00  0.00    +0.000 HD
ENDBRANCH12971299
BRANCH12971301
ATOM   1301  O3' U   B  23     -22.474  13.857 -29.039  0.00  0.00    +0.000 OA
BRANCH13011304
ATOM   1302  C4' U   B  23     -20.650  13.182 -30.518  0.00  0.00    +0.000 C 
ATOM   1303  O4' U   B  23     -20.086  11.906 -30.897  0.00  0.00    +0.000 OA
ATOM   1304  C3' U   B  23     -21.475  12.878 -29.289  0.00  0.00    +0.000 C 
ATOM   1305  C2' U   B  23     -22.039  11.508 -29.615  0.00  0.00    +0.000 C 
ATOM   1306  C1' U   B  23     -20.856  10.863 -30.329  0.00  0.00    +0.000 C 
BRANCH13061307
ATOM   1307  N1  U   B  23     -19.994  10.083 -29.413  0.00  0.00    +0.000 N 
ATOM   1308  C2  U   B  23     -20.459   8.854 -28.972  0.00  0.00    +0.000 A 
ATOM   1309  O2  U   B  23     -21.540   8.394 -29.299  0.00  0.00    +0.000 OA
ATOM   1310  N3  U   B  23     -19.614   8.181 -28.127  0.00  0.00    +0.000 N 
ATOM   1311  C4  U   B  23     -18.375   8.593 -27.687  0.00  0.00    +0.000 A 
ATOM   1312  O4  U   B  23     -17.736   7.871 -26.927  0.00  0.00    +0.000 OA
ATOM   1313  C5  U   B  23     -17.959   9.864 -28.189  0.00  0.00    +0.000 A 
ATOM   1314  C6  U   B  23     -18.769  10.550 -29.018  0.00  0.00    +0.000 A 
ATOM   1315  H   U   B  23     -19.927   7.307 -27.799  0.00  0.00    +0.000 HD
ENDBRANCH13061307
BRANCH13051316
ATOM   1316  O2' U   B  23     -23.135  11.586 -30.501  0.00  0.00    +0.000 OA
ATOM   1317  H   U   B  23     -22.866  12.054 -31.307  0.00  0.00    +0.000 HD
ENDBRANCH13051316
BRANCH13021318
ATOM   1318  C5' U   B  23     -19.552  14.192 -30.342  0.00  0.00    +0.000 C 
BRANCH13181319
ATOM   1319  O5' U   B  23     -18.702  13.842 -29.262  0.00  0.00    +0.000 OA
BRANCH13191320
ATOM   1320  P   U   B  23     -17.658  14.888 -28.670  0.00  0.00    +0.000 P 
ATOM   1321  OP2 U   B  23     -16.636  15.149 -29.704  0.00  0.00    +0.000 OA
BRANCH13201322
ATOM   1322  OP1 U   B  23     -17.231  14.408 -27.324  0.00  0.00    +0.000 OA
ATOM   1323  H   U   B  23     -16.704  13.600 -27.421  0.00  0.00    +0.000 HD
ENDBRANCH13201322
BRANCH13201324
ATOM   1324  O3' C   B  22     -18.526  16.224 -28.467  0.00  0.00    +0.000 OA
BRANCH13241327
ATOM   1325  C4' C   B  22     -17.930  18.447 -27.674  0.00  0.00    +0.000 C 
ATOM   1326  O4' C   B  22     -17.854  19.751 -28.309  0.00  0.00    +0.000 OA
ATOM   1327  C3' C   B  22     -17.991  17.484 -28.835  0.00  0.00    +0.000 C 
ATOM   1328  C2' C   B  22     -18.861  18.241 -29.833  0.00  0.00    +0.000 C 
ATOM   1329  C1' C   B  22     -18.383  19.677 -29.617  0.00  0.00    +0.000 C 
BRANCH13291330
ATOM   1330  N1  C   B  22     -17.333  20.081 -30.578  0.00  0.00    +0.000 N 
ATOM   1331  C2  C   B  22     -17.726  20.543 -31.833  0.00  0.00    +0.000 A 
ATOM   1332  O2  C   B  22     -18.939  20.611 -32.099  0.00  0.00    +0.000 OA
ATOM   1333  N3  C   B  22     -16.781  20.908 -32.728  0.00  0.00    +0.000 NA
ATOM   1334  C4  C   B  22     -15.486  20.825 -32.413  0.00  0.00    +0.000 A 
ATOM   1335  N4  C   B  22     -14.591  21.192 -33.324  0.00  0.00    +0.000 N 
ATOM   1336  C5  C   B  22     -15.061  20.354 -31.141  0.00  0.00    +0.000 A 
ATOM   1337  C6  C   B  22     -16.004  19.996 -30.265  0.00  0.00    +0.000 A 
ATOM   1338  H   C   B  22     -14.889  21.518 -34.204  0.00  0.00    +0.000 HD
ATOM   1339  H   C   B  22     -13.630  21.138 -33.119  0.00  0.00    +0.000 HD
ENDBRANCH13291330
BRANCH13281340
ATOM   1340  O2' C   B  22     -20.234  18.162 -29.509  0.00  0.00    +0.000 OA
ATOM   1341  H   C   B  22     -20.373  18.493 -28.608  0.00  0.00    +0.000 HD
ENDBRANCH13281340
BRANCH13251342
ATOM   1342  C5' C   B  22     -16.767  18.269 -26.727  0.00  0.00    +0.000 C 
BRANCH13421343
ATOM   1343  O5' C   B  22     -15.524  18.320 -27.410  0.00  0.00    +0.000 OA
BRANCH13431344
ATOM   1344  P   C   B  22     -14.152  18.443 -26.619  0.00  0.00    +0.000 P 
ATOM   1345  OP2 C   B  22     -13.059  18.583 -27.618  0.00  0.00    +0.000 OA
BRANCH13441346
ATOM   1346  OP1 C   B  22     -14.087  17.352 -25.614  0.00  0.00    +0.000 OA
ATOM   1347  H   C   B  22     -13.987  16.500 -26.067  0.00  0.00    +0.000 HD
ENDBRANCH13441346
BRANCH13441348
ATOM   1348  O3' A   B  21     -14.320  19.850 -25.816  0.00  0.00    +0.000 OA
BRANCH13481351
ATOM   1349  C4' A   B  21     -13.588  22.179 -25.677  0.00  0.00    +0.000 C 
ATOM   1350  O4' A   B  21     -14.009  23.401 -26.342  0.00  0.00    +0.000 OA
ATOM   1351  C3' A   B  21     -14.215  21.081 -26.515  0.00  0.00    +0.000 C 
ATOM   1352  C2' A   B  21     -15.565  21.689 -26.873  0.00  0.00    +0.000 C 
ATOM   1353  C1' A   B  21     -15.180  23.152 -27.094  0.00  0.00    +0.000 C 
BRANCH13531354
ATOM   1354  N9  A   B  21     -14.911  23.441 -28.508  0.00  0.00    +0.000 N 
ATOM   1355  C8  A   B  21     -13.702  23.553 -29.139  0.00  0.00    +0.000 A 
ATOM   1356  N7  A   B  21     -13.801  23.820 -30.421  0.00  0.00    +0.000 NA
ATOM   1357  C5  A   B  21     -15.166  23.884 -30.644  0.00  0.00    +0.000 A 
ATOM   1358  C6  A   B  21     -15.925  24.131 -31.793  0.00  0.00    +0.000 A 
ATOM   1359  N1  A   B  21     -17.268  24.126 -31.679  0.00  0.00    +0.000 NA
ATOM   1360  C2  A   B  21     -17.806  23.885 -30.477  0.00  0.00    +0.000 A 
ATOM   1361  N3  A   B  21     -17.198  23.642 -29.320  0.00  0.00    +0.000 NA
ATOM   1362  C4  A   B  21     -15.862  23.652 -29.474  0.00  0.00    +0.000 A 
BRANCH13581363
ATOM   1363  N6  A   B  21     -15.387  24.370 -32.994  0.00  0.00    +0.000 N 
ATOM   1364  H   A   B  21     -15.969  24.538 -33.770  0.00  0.00    +0.000 HD
ATOM   1365  H   A   B  21     -14.409  24.378 -33.102  0.00  0.00    +0.000 HD
ENDBRANCH13581363
ENDBRANCH13531354
BRANCH13521366
ATOM   1366  O2' A   B  21     -16.481  21.615 -25.798  0.00  0.00    +0.000 OA
ATOM   1367  H   A   B  21     -16.099  22.047 -25.018  0.00  0.00    +0.000 HD
ENDBRANCH13521366
BRANCH13491368
ATOM   1368  C5' A   B  21     -12.081  22.146 -25.558  0.00  0.00    +0.000 C 
BRANCH13681369
ATOM   1369  O5' A   B  21     -11.461  22.210 -26.836  0.00  0.00    +0.000 OA
BRANCH13691370
ATOM   1370  P   A   B  21      -9.889  22.445 -26.963  0.00  0.00    +0.000 P 
ATOM   1371  OP2 A   B  21      -9.556  22.496 -28.408  0.00  0.00    +0.000 OA
BRANCH13701372
ATOM   1372  OP1 A   B  21      -9.204  21.461 -26.085  0.00  0.00    +0.000 OA
ATOM   1373  H   A   B  21      -9.313  20.570 -26.452  0.00  0.00    +0.000 HD
ENDBRANCH13701372
BRANCH13701374
ATOM   1374  O3' A   B  20      -9.681  23.903 -26.315  0.00  0.00    +0.000 OA
BRANCH13741377
ATOM   1375  C4' A   B  20      -9.242  26.280 -26.712  0.00  0.00    +0.000 C 
ATOM   1376  O4' A   B  20     -10.078  27.393 -27.128  0.00  0.00    +0.000 OA
ATOM   1377  C3' A   B  20     -10.090  25.062 -27.022  0.00  0.00    +0.000 C 
ATOM   1378  C2' A   B  20     -11.479  25.547 -26.640  0.00  0.00    +0.000 C 
ATOM   1379  C1' A   B  20     -11.434  26.988 -27.137  0.00  0.00    +0.000 C 
BRANCH13791380
ATOM   1380  N9  A   B  20     -11.960  27.104 -28.504  0.00  0.00    +0.000 N 
ATOM   1381  C8  A   B  20     -11.266  27.200 -29.684  0.00  0.00    +0.000 A 
ATOM   1382  N7  A   B  20     -12.039  27.285 -30.742  0.00  0.00    +0.000 NA
ATOM   1383  C5  A   B  20     -13.324  27.239 -30.221  0.00  0.00    +0.000 A 
ATOM   1384  C6  A   B  20     -14.590  27.283 -30.820  0.00  0.00    +0.000 A 
ATOM   1385  N1  A   B  20     -15.670  27.214 -30.016  0.00  0.00    +0.000 NA
ATOM   1386  C2  A   B  20     -15.483  27.107 -28.696  0.00  0.00    +0.000 A 
ATOM   1387  N3  A   B  20     -14.342  27.058 -28.013  0.00  0.00    +0.000 NA
ATOM   1388  C4  A   B  20     -13.289  27.128 -28.844  0.00  0.00    +0.000 A 
BRANCH13841389
ATOM   1389  N6  A   B  20     -14.779  27.388 -32.140  0.00  0.00    +0.000 N 
ATOM   1390  H   A   B  20     -14.005  27.440 -32.746  0.00  0.00    +0.000 HD
ATOM   1391  H   A   B  20     -15.693  27.413 -32.506  0.00  0.00    +0.000 HD
ENDBRANCH13841389
ENDBRANCH13791380
BRANCH13781392
ATOM   1392  O2' A   B  20     -11.672  25.550 -25.240  0.00  0.00    +0.000 OA
ATOM   1393  H   A   B  20     -10.985  26.091 -24.820  0.00  0.00    +0.000 HD
ENDBRANCH13781392
BRANCH13751394
ATOM   1394  C5' A   B  20      -7.903  26.353 -27.405  0.00  0.00    +0.000 C 
BRANCH13941395
ATOM   1395  O5' A   B  20      -8.050  26.277 -28.819  0.00  0.00    +0.000 OA
BRANCH13951396
ATOM   1396  P   A   B  20      -6.820  26.612 -29.778  0.00  0.00    +0.000 P 
ATOM   1397  OP2 A   B  20      -7.282  26.453 -31.181  0.00  0.00    +0.000 OA
BRANCH13961398
ATOM   1398  OP1 A   B  20      -5.642  25.845 -29.300  0.00  0.00    +0.000 OA
ATOM   1399  H   A   B  20      -4.880  26.034 -29.870  0.00  0.00    +0.000 HD
ENDBRANCH13961398
BRANCH13961400
ATOM   1400  O3' A   B  19      -6.554  28.172 -29.489  0.00  0.00    +0.000 OA
BRANCH14001403
ATOM   1401  C4' A   B  19      -6.709  30.440 -30.384  0.00  0.00    +0.000 C 
ATOM   1402  O4' A   B  19      -7.760  31.445 -30.394  0.00  0.00    +0.000 OA
ATOM   1403  C3' A   B  19      -7.433  29.162 -30.014  0.00  0.00    +0.000 C 
ATOM   1404  C2' A   B  19      -8.460  29.657 -29.006  0.00  0.00    +0.000 C 
ATOM   1405  C1' A   B  19      -8.859  30.993 -29.626  0.00  0.00    +0.000 C 
BRANCH14051406
ATOM   1406  N9  A   B  19     -10.026  30.869 -30.513  0.00  0.00    +0.000 N 
ATOM   1407  C8  A   B  19     -10.051  30.829 -31.883  0.00  0.00    +0.000 A 
ATOM   1408  N7  A   B  19     -11.257  30.715 -32.384  0.00  0.00    +0.000 NA
ATOM   1409  C5  A   B  19     -12.080  30.676 -31.268  0.00  0.00    +0.000 A 
ATOM   1410  C6  A   B  19     -13.472  30.562 -31.121  0.00  0.00    +0.000 A 
ATOM   1411  N1  A   B  19     -13.975  30.553 -29.868  0.00  0.00    +0.000 NA
ATOM   1412  C2  A   B  19     -13.128  30.651 -28.835  0.00  0.00    +0.000 A 
ATOM   1413  N3  A   B  19     -11.799  30.765 -28.845  0.00  0.00    +0.000 NA
ATOM   1414  C4  A   B  19     -11.334  30.770 -30.107  0.00  0.00    +0.000 A 
BRANCH14101415
ATOM   1415  N6  A   B  19     -14.317  30.464 -32.151  0.00  0.00    +0.000 N 
ATOM   1416  H   A   B  19     -13.972  30.469 -33.073  0.00  0.00    +0.000 HD
ATOM   1417  H   A   B  19     -15.285  30.387 -31.988  0.00  0.00    +0.000 HD
ENDBRANCH14101415
ENDBRANCH14051406
BRANCH14041418
ATOM   1418  O2' A   B  19      -7.885  29.895 -27.735  0.00  0.00    +0.000 OA
ATOM   1419  H   A   B  19      -7.153  30.525 -27.824  0.00  0.00    +0.000 HD
ENDBRANCH14041418
BRANCH14011420
ATOM   1420  C5' A   B  19      -6.002  30.425 -31.717  0.00  0.00    +0.000 C 
BRANCH14201421
ATOM   1421  O5' A   B  19      -6.878  30.011 -32.762  0.00  0.00    +0.000 OA
BRANCH14211422
ATOM   1422  P   A   B  19      -6.368  29.927 -34.271  0.00  0.00    +0.000 P 
ATOM   1423  OP2 A   B  19      -7.495  29.447 -35.113  0.00  0.00    +0.000 OA
BRANCH14221424
ATOM   1424  OP1 A   B  19      -5.080  29.193 -34.279  0.00  0.00    +0.000 OA
ATOM   1425  H   A   B  19      -4.750  29.129 -35.189  0.00  0.00    +0.000 HD
ENDBRANCH14221424
BRANCH14221426
ATOM   1426  O3' G   B  18      -6.082  31.450 -34.638  0.00  0.00    +0.000 OA
BRANCH14261429
ATOM   1427  C4' G   B  18      -6.760  33.416 -35.915  0.00  0.00    +0.000 C 
ATOM   1428  O4' G   B  18      -7.707  34.490 -35.670  0.00  0.00    +0.000 OA
ATOM   1429  C3' G   B  18      -7.149  32.354 -34.904  0.00  0.00    +0.000 C 
ATOM   1430  C2' G   B  18      -7.553  33.192 -33.702  0.00  0.00    +0.000 C 
ATOM   1431  C1' G   B  18      -8.254  34.363 -34.377  0.00  0.00    +0.000 C 
BRANCH14311432
ATOM   1432  N9  G   B  18      -9.704  34.144 -34.504  0.00  0.00    +0.000 N 
ATOM   1433  C8  G   B  18     -10.424  33.961 -35.659  0.00  0.00    +0.000 A 
ATOM   1434  N7  G   B  18     -11.697  33.784 -35.446  0.00  0.00    +0.000 NA
ATOM   1435  C5  G   B  18     -11.829  33.860 -34.071  0.00  0.00    +0.000 A 
ATOM   1436  C6  G   B  18     -12.976  33.744 -33.251  0.00  0.00    +0.000 A 
ATOM   1437  O6  G   B  18     -14.149  33.546 -33.588  0.00  0.00    +0.000 OA
ATOM   1438  N1  G   B  18     -12.666  33.883 -31.903  0.00  0.00    +0.000 NA
ATOM   1439  C2  G   B  18     -11.407  34.105 -31.408  0.00  0.00    +0.000 A 
ATOM   1440  N2  G   B  18     -11.297  34.214 -30.074  0.00  0.00    +0.000 N 
ATOM   1441  N3  G   B  18     -10.323  34.219 -32.159  0.00  0.00    +0.000 N 
ATOM   1442  C4  G   B  18     -10.608  34.083 -33.473  0.00  0.00    +0.000 A 
ATOM   1443  H   G   B  18     -10.416  34.374 -29.664  0.00  0.00    +0.000 HD
ATOM   1444  H   G   B  18     -12.097  34.134 -29.506  0.00  0.00    +0.000 HD
ATOM   1445  H   G   B  18      -9.420  34.383 -31.804  0.00  0.00    +0.000 HD
ENDBRANCH14311432
BRANCH14301446
ATOM   1446  O2' G   B  18      -6.428  33.680 -32.997  0.00  0.00    +0.000 OA
ATOM   1447  H   G   B  18      -5.862  34.186 -33.601  0.00  0.00    +0.000 HD
ENDBRANCH14301446
BRANCH14271448
ATOM   1448  C5' G   B  18      -6.808  32.998 -37.366  0.00  0.00    +0.000 C 
BRANCH14481449
ATOM   1449  O5' G   B  18      -7.478  33.963 -38.167  0.00  0.00    +0.000 OA
BRANCH14491450
ATOM   1450  P   G   B  18      -6.917  34.404 -39.586  0.00  0.00    +0.000 P 
ATOM   1451  OP2 G   B  18      -8.080  34.743 -40.430  0.00  0.00    +0.000 OA
BRANCH14501452
ATOM   1452  OP1 G   B  18      -5.948  33.382 -40.051  0.00  0.00    +0.000 OA
ATOM   1453  H   G   B  18      -5.597  33.640 -40.918  0.00  0.00    +0.000 HD
ENDBRANCH14501452
BRANCH14501454
ATOM   1454  O3' C   B  17      -6.087  35.735 -39.259  0.00  0.00    +0.000 OA
BRANCH14541457
ATOM   1455  C4' C   B  17      -6.684  38.087 -38.953  0.00  0.00    +0.000 C 
ATOM   1456  O4' C   B  17      -6.668  38.983 -37.806  0.00  0.00    +0.000 OA
ATOM   1457  C3' C   B  17      -6.580  36.707 -38.336  0.00  0.00    +0.000 C 
ATOM   1458  C2' C   B  17      -5.642  36.947 -37.157  0.00  0.00    +0.000 C 
ATOM   1459  C1' C   B  17      -6.097  38.331 -36.690  0.00  0.00    +0.000 C 
BRANCH14591460
ATOM   1460  N1  C   B  17      -7.104  38.261 -35.609  0.00  0.00    +0.000 N 
ATOM   1461  C2  C   B  17      -6.665  38.101 -34.290  0.00  0.00    +0.000 A 
ATOM   1462  O2  C   B  17      -5.448  38.025 -34.059  0.00  0.00    +0.000 OA
ATOM   1463  N3  C   B  17      -7.581  38.034 -33.292  0.00  0.00    +0.000 NA
ATOM   1464  C4  C   B  17      -8.884  38.119 -33.570  0.00  0.00    +0.000 A 
ATOM   1465  N4  C   B  17      -9.748  38.050 -32.556  0.00  0.00    +0.000 N 
ATOM   1466  C5  C   B  17      -9.352  38.281 -34.903  0.00  0.00    +0.000 A 
ATOM   1467  C6  C   B  17      -8.437  38.347 -35.880  0.00  0.00    +0.000 A 
ATOM   1468  H   C   B  17     -10.715  38.110 -32.729  0.00  0.00    +0.000 HD
ATOM   1469  H   C   B  17      -9.418  37.939 -31.635  0.00  0.00    +0.000 HD
ENDBRANCH14591460
BRANCH14581470
ATOM   1470  O2' C   B  17      -4.288  37.022 -37.562  0.00  0.00    +0.000 OA
ATOM   1471  H   C   B  17      -4.189  37.717 -38.231  0.00  0.00    +0.000 HD
ENDBRANCH14581470
BRANCH14551472
ATOM   1472  C5' C   B  17      -7.922  38.346 -39.779  0.00  0.00    +0.000 C 
BRANCH14721473
ATOM   1473  O5' C   B  17      -9.101  38.089 -39.025  0.00  0.00    +0.000 OA
BRANCH14731474
ATOM   1474  P   C   B  17     -10.539  38.484 -39.586  0.00  0.00    +0.000 P 
ATOM   1475  OP1 C   B  17     -10.619  38.052 -40.997  0.00  0.00    +0.000 OA
BRANCH14741476
ATOM   1476  OP2 C   B  17     -11.557  38.008 -38.611  0.00  0.00    +0.000 OA
ATOM   1477  H   C   B  17     -12.443  38.237 -38.931  0.00  0.00    +0.000 HD
ENDBRANCH14741476
BRANCH14741478
ATOM   1478  O3' C   B  16     -10.526  40.089 -39.543  0.00  0.00    +0.000 OA
BRANCH14781481
ATOM   1479  C4' C   B  16     -11.359  41.987 -38.258  0.00  0.00    +0.000 C 
ATOM   1480  O4' C   B  16     -10.762  42.868 -37.263  0.00  0.00    +0.000 OA
ATOM   1481  C3' C   B  16     -10.425  40.801 -38.309  0.00  0.00    +0.000 C 
ATOM   1482  C2' C   B  16      -9.059  41.448 -38.104  0.00  0.00    +0.000 C 
ATOM   1483  C1' C   B  16      -9.390  42.559 -37.110  0.00  0.00    +0.000 C 
BRANCH14831484
ATOM   1484  N1  C   B  16      -9.137  42.180 -35.706  0.00  0.00    +0.000 N 
ATOM   1485  C2  C   B  16      -7.829  42.235 -35.215  0.00  0.00    +0.000 A 
ATOM   1486  O2  C   B  16      -6.914  42.598 -35.968  0.00  0.00    +0.000 OA
ATOM   1487  N3  C   B  16      -7.591  41.894 -33.923  0.00  0.00    +0.000 NA
ATOM   1488  C4  C   B  16      -8.597  41.511 -33.137  0.00  0.00    +0.000 A 
ATOM   1489  N4  C   B  16      -8.316  41.189 -31.874  0.00  0.00    +0.000 N 
ATOM   1490  C5  C   B  16      -9.933  41.446 -33.611  0.00  0.00    +0.000 A 
ATOM   1491  C6  C   B  16     -10.158  41.787 -34.888  0.00  0.00    +0.000 A 
ATOM   1492  H   C   B  16      -7.388  41.235 -31.549  0.00  0.00    +0.000 HD
ATOM   1493  H   C   B  16      -9.037  40.905 -31.266  0.00  0.00    +0.000 HD
ENDBRANCH14831484
BRANCH14821494
ATOM   1494  O2' C   B  16      -8.555  42.027 -39.292  0.00  0.00    +0.000 OA
ATOM   1495  H   C   B  16      -9.191  42.676 -39.630  0.00  0.00    +0.000 HD
ENDBRANCH14821494
BRANCH14791496
ATOM   1496  C5' C   B  16     -12.788  41.686 -37.873  0.00  0.00    +0.000 C 
BRANCH14961497
ATOM   1497  O5' C   B  16     -12.851  41.036 -36.606  0.00  0.00    +0.000 OA
BRANCH14971498
ATOM   1498  P   C   B  16     -14.230  40.850 -35.844  0.00  0.00    +0.000 P 
ATOM   1499  OP1 C   B  16     -15.233  40.349 -36.812  0.00  0.00    +0.000 OA
BRANCH14981500
ATOM   1500  OP2 C   B  16     -13.969  40.092 -34.597  0.00  0.00    +0.000 OA
ATOM   1501  H   C   B  16     -13.744  39.175 -34.817  0.00  0.00    +0.000 HD
ENDBRANCH14981500
BRANCH14981502
ATOM   1502  O3' U   B  15     -14.596  42.355 -35.422  0.00  0.00    +0.000 OA
BRANCH15021505
ATOM   1503  C4' U   B  15     -14.903  43.906 -33.571  0.00  0.00    +0.000 C 
ATOM   1504  O4' U   B  15     -14.043  44.869 -32.912  0.00  0.00    +0.000 OA
ATOM   1505  C3' U   B  15     -13.956  43.007 -34.334  0.00  0.00    +0.000 C 
ATOM   1506  C2' U   B  15     -12.860  43.973 -34.766  0.00  0.00    +0.000 C 
ATOM   1507  C1' U   B  15     -12.780  44.907 -33.558  0.00  0.00    +0.000 C 
BRANCH15071508
ATOM   1508  N1  U   B  15     -11.740  44.527 -32.589  0.00  0.00    +0.000 N 
ATOM   1509  C2  U   B  15     -10.411  44.730 -32.916  0.00  0.00    +0.000 A 
ATOM   1510  O2  U   B  15     -10.046  45.206 -33.980  0.00  0.00    +0.000 OA
ATOM   1511  N3  U   B  15      -9.508  44.348 -31.954  0.00  0.00    +0.000 N 
ATOM   1512  C4  U   B  15      -9.791  43.807 -30.717  0.00  0.00    +0.000 A 
ATOM   1513  O4  U   B  15      -8.871  43.517 -29.957  0.00  0.00    +0.000 OA
ATOM   1514  C5  U   B  15     -11.181  43.637 -30.448  0.00  0.00    +0.000 A 
ATOM   1515  C6  U   B  15     -12.086  43.991 -31.372  0.00  0.00    +0.000 A 
ATOM   1516  H   U   B  15      -8.556  44.474 -32.171  0.00  0.00    +0.000 HD
ENDBRANCH15071508
BRANCH15061517
ATOM   1517  O2' U   B  15     -13.215  44.718 -35.906  0.00  0.00    +0.000 OA
ATOM   1518  H   U   B  15     -14.039  45.200 -35.734  0.00  0.00    +0.000 HD
ENDBRANCH15061517
BRANCH15031519
ATOM   1519  C5' U   B  15     -15.768  43.226 -32.537  0.00  0.00    +0.000 C 
BRANCH15191520
ATOM   1520  O5' U   B  15     -14.954  42.562 -31.568  0.00  0.00    +0.000 OA
BRANCH15201521
ATOM   1521  P   U   B  15     -15.251  42.739 -30.008  0.00  0.00    +0.000 P 
ATOM   1522  OP2 U   B  15     -16.592  42.167 -29.743  0.00  0.00    +0.000 OA
BRANCH15211523
ATOM   1523  OP1 U   B  15     -14.968  44.148 -29.624  0.00  0.00    +0.000 OA
ATOM   1524  H   U   B  15     -15.604  44.736 -30.060  0.00  0.00    +0.000 HD
ENDBRANCH15211523
BRANCH15211525
ATOM   1525  O3' A   B  14     -14.172  41.822 -29.259  0.00  0.00    +0.000 OA
BRANCH15251528
ATOM   1526  C4' A   B  14     -13.743  39.670 -28.166  0.00  0.00    +0.000 C 
ATOM   1527  O4' A   B  14     -13.498  38.336 -28.668  0.00  0.00    +0.000 OA
ATOM   1528  C3' A   B  14     -14.211  40.417 -29.392  0.00  0.00    +0.000 C 
ATOM   1529  C2' A   B  14     -13.258  39.878 -30.449  0.00  0.00    +0.000 C 
ATOM   1530  C1' A   B  14     -13.202  38.410 -30.051  0.00  0.00    +0.000 C 
BRANCH15301531
ATOM   1531  N9  A   B  14     -14.188  37.632 -30.805  0.00  0.00    +0.000 N 
ATOM   1532  C8  A   B  14     -15.433  37.210 -30.422  0.00  0.00    +0.000 A 
ATOM   1533  N7  A   B  14     -16.069  36.554 -31.362  0.00  0.00    +0.000 NA
ATOM   1534  C5  A   B  14     -15.183  36.552 -32.432  0.00  0.00    +0.000 A 
ATOM   1535  C6  A   B  14     -15.258  36.023 -33.724  0.00  0.00    +0.000 A 
ATOM   1536  N1  A   B  14     -14.199  36.194 -34.539  0.00  0.00    +0.000 NA
ATOM   1537  C2  A   B  14     -13.139  36.855 -34.079  0.00  0.00    +0.000 A 
ATOM   1538  N3  A   B  14     -12.947  37.400 -32.882  0.00  0.00    +0.000 NA
ATOM   1539  C4  A   B  14     -14.021  37.210 -32.098  0.00  0.00    +0.000 A 
BRANCH15351540
ATOM   1540  N6  A   B  14     -16.321  35.367 -34.189  0.00  0.00    +0.000 N 
ATOM   1541  H   A   B  14     -16.319  35.015 -35.109  0.00  0.00    +0.000 HD
ATOM   1542  H   A   B  14     -17.108  35.234 -33.613  0.00  0.00    +0.000 HD
ENDBRANCH15351540
ENDBRANCH15301531
BRANCH15291543
ATOM   1543  O2' A   B  14     -11.978  40.446 -30.346  0.00  0.00    +0.000 OA
ATOM   1544  H   A   B  14     -11.630  40.299 -29.452  0.00  0.00    +0.000 HD
ENDBRANCH15291543
BRANCH15261545
ATOM   1545  C5' A   B  14     -14.690  39.628 -26.992  0.00  0.00    +0.000 C 
BRANCH15451546
ATOM   1546  O5' A   B  14     -15.962  39.136 -27.362  0.00  0.00    +0.000 OA
BRANCH15461547
ATOM   1547  P   A   B  14     -17.086  38.925 -26.255  0.00  0.00    +0.000 P 
ATOM   1548  OP2 A   B  14     -18.311  38.462 -26.949  0.00  0.00    +0.000 OA
BRANCH15471549
ATOM   1549  OP1 A   B  14     -17.143  40.125 -25.399  0.00  0.00    +0.000 OA
ATOM   1550  H   A   B  14     -17.481  40.874 -25.914  0.00  0.00    +0.000 HD
ENDBRANCH15471549
BRANCH15471551
ATOM   1551  O3' C   B  13     -16.519  37.726 -25.338  0.00  0.00    +0.000 OA
BRANCH15511554
ATOM   1552  C4' C   B  13     -16.649  35.305 -24.920  0.00  0.00    +0.000 C 
ATOM   1553  O4' C   B  13     -16.116  34.146 -25.614  0.00  0.00    +0.000 OA
ATOM   1554  C3' C   B  13     -16.426  36.430 -25.906  0.00  0.00    +0.000 C 
ATOM   1555  C2' C   B  13     -15.040  36.092 -26.436  0.00  0.00    +0.000 C 
ATOM   1556  C1' C   B  13     -15.142  34.573 -26.550  0.00  0.00    +0.000 C 
BRANCH15561557
ATOM   1557  N1  C   B  13     -15.549  34.163 -27.912  0.00  0.00    +0.000 N 
ATOM   1558  C2  C   B  13     -14.546  34.059 -28.881  0.00  0.00    +0.000 A 
ATOM   1559  O2  C   B  13     -13.372  34.281 -28.561  0.00  0.00    +0.000 OA
ATOM   1560  N3  C   B  13     -14.879  33.711 -30.146  0.00  0.00    +0.000 NA
ATOM   1561  C4  C   B  13     -16.155  33.480 -30.456  0.00  0.00    +0.000 A 
ATOM   1562  N4  C   B  13     -16.435  33.144 -31.712  0.00  0.00    +0.000 N 
ATOM   1563  C5  C   B  13     -17.194  33.583 -29.489  0.00  0.00    +0.000 A 
ATOM   1564  C6  C   B  13     -16.849  33.926 -28.243  0.00  0.00    +0.000 A 
ATOM   1565  H   C   B  13     -15.711  33.075 -32.376  0.00  0.00    +0.000 HD
ATOM   1566  H   C   B  13     -17.366  32.965 -31.978  0.00  0.00    +0.000 HD
ENDBRANCH15561557
BRANCH15551567
ATOM   1567  O2' C   B  13     -14.030  36.424 -25.514  0.00  0.00    +0.000 OA
ATOM   1568  H   C   B  13     -14.204  35.979 -24.670  0.00  0.00    +0.000 HD
ENDBRANCH15551567
BRANCH15521569
ATOM   1569  C5' C   B  13     -18.072  35.055 -24.490  0.00  0.00    +0.000 C 
BRANCH15691570
ATOM   1570  O5' C   B  13     -18.942  34.953 -25.604  0.00  0.00    +0.000 OA
BRANCH15701571
ATOM   1571  P   C   B  13     -20.467  34.562 -25.398  0.00  0.00    +0.000 P 
ATOM   1572  OP2 C   B  13     -21.111  34.531 -26.735  0.00  0.00    +0.000 OA
BRANCH15711573
ATOM   1573  OP1 C   B  13     -21.031  35.415 -24.327  0.00  0.00    +0.000 OA
ATOM   1574  H   C   B  13     -21.090  36.331 -24.640  0.00  0.00    +0.000 HD
ENDBRANCH15711573
BRANCH15711575
ATOM   1575  O3' U   B  12     -20.399  33.063 -24.810  0.00  0.00    +0.000 OA
BRANCH15751578
ATOM   1576  C4' U   B  12     -20.750  30.706 -25.375  0.00  0.00    +0.000 C 
ATOM   1577  O4' U   B  12     -19.935  29.701 -26.038  0.00  0.00    +0.000 OA
ATOM   1578  C3' U   B  12     -20.038  32.005 -25.686  0.00  0.00    +0.000 C 
ATOM   1579  C2' U   B  12     -18.577  31.596 -25.586  0.00  0.00    +0.000 C 
ATOM   1580  C1' U   B  12     -18.621  30.202 -26.214  0.00  0.00    +0.000 C 
BRANCH15801581
ATOM   1581  N1  U   B  12     -18.313  30.238 -27.659  0.00  0.00    +0.000 N 
ATOM   1582  C2  U   B  12     -16.976  30.227 -28.012  0.00  0.00    +0.000 A 
ATOM   1583  O2  U   B  12     -16.076  30.182 -27.195  0.00  0.00    +0.000 OA
ATOM   1584  N3  U   B  12     -16.728  30.268 -29.364  0.00  0.00    +0.000 N 
ATOM   1585  C4  U   B  12     -17.662  30.320 -30.372  0.00  0.00    +0.000 A 
ATOM   1586  O4  U   B  12     -17.283  30.357 -31.542  0.00  0.00    +0.000 OA
ATOM   1587  C5  U   B  12     -19.021  30.330 -29.927  0.00  0.00    +0.000 A 
ATOM   1588  C6  U   B  12     -19.292  30.289 -28.617  0.00  0.00    +0.000 A 
ATOM   1589  H   U   B  12     -15.783  30.259 -29.639  0.00  0.00    +0.000 HD
ENDBRANCH15801581
BRANCH15791590
ATOM   1590  O2' U   B  12     -18.152  31.485 -24.243  0.00  0.00    +0.000 OA
ATOM   1591  H   U   B  12     -18.725  30.859 -23.773  0.00  0.00    +0.000 HD
ENDBRANCH15791590
BRANCH15761592
ATOM   1592  C5' U   B  12     -22.179  30.604 -25.847  0.00  0.00    +0.000 C 
BRANCH15921593
ATOM   1593  O5' U   B  12     -22.301  30.991 -27.209  0.00  0.00    +0.000 OA
BRANCH15931594
ATOM   1594  P   U   B  12     -23.672  30.797 -27.987  0.00  0.00    +0.000 P 
ATOM   1595  OP2 U   B  12     -23.468  31.234 -29.391  0.00  0.00    +0.000 OA
BRANCH15941596
ATOM   1596  OP1 U   B  12     -24.757  31.404 -27.180  0.00  0.00    +0.000 OA
ATOM   1597  H   U   B  12     -25.603  31.294 -27.641  0.00  0.00    +0.000 HD
ENDBRANCH15941596
BRANCH15941598
ATOM   1598  O3' U   B  11     -23.870  29.213 -27.938  0.00  0.00    +0.000 OA
BRANCH15981601
ATOM   1599  C4' U   B  11     -23.897  27.215 -29.344  0.00  0.00    +0.000 C 
ATOM   1600  O4' U   B  11     -22.875  26.283 -29.785  0.00  0.00    +0.000 OA
ATOM   1601  C3' U   B  11     -23.108  28.396 -28.818  0.00  0.00    +0.000 C 
ATOM   1602  C2' U   B  11     -21.919  27.719 -28.151  0.00  0.00    +0.000 C 
ATOM   1603  C1' U   B  11     -21.655  26.565 -29.121  0.00  0.00    +0.000 C 
BRANCH16031604
ATOM   1604  N1  U   B  11     -20.629  26.901 -30.132  0.00  0.00    +0.000 N 
ATOM   1605  C2  U   B  11     -19.303  26.779 -29.753  0.00  0.00    +0.000 A 
ATOM   1606  O2  U   B  11     -18.962  26.417 -28.642  0.00  0.00    +0.000 OA
ATOM   1607  N3  U   B  11     -18.387  27.103 -30.726  0.00  0.00    +0.000 N 
ATOM   1608  C4  U   B  11     -18.655  27.523 -32.008  0.00  0.00    +0.000 A 
ATOM   1609  O4  U   B  11     -17.719  27.775 -32.768  0.00  0.00    +0.000 OA
ATOM   1610  C5  U   B  11     -20.046  27.624 -32.322  0.00  0.00    +0.000 A 
ATOM   1611  C6  U   B  11     -20.962  27.316 -31.396  0.00  0.00    +0.000 A 
ATOM   1612  H   U   B  11     -17.437  27.026 -30.478  0.00  0.00    +0.000 HD
ENDBRANCH16031604
BRANCH16021613
ATOM   1613  O2' U   B  11     -22.264  27.189 -26.887  0.00  0.00    +0.000 OA
ATOM   1614  H   U   B  11     -23.011  26.578 -26.985  0.00  0.00    +0.000 HD
ENDBRANCH16021613
BRANCH15991615
ATOM   1615  C5' U   B  11     -24.846  27.516 -30.477  0.00  0.00    +0.000 C 
BRANCH16151616
ATOM   1616  O5' U   B  11     -24.208  28.290 -31.489  0.00  0.00    +0.000 OA
BRANCH16161617
ATOM   1617  P   U   B  11     -24.954  28.629 -32.849  0.00  0.00    +0.000 P 
ATOM   1618  OP2 U   B  11     -24.001  29.351 -33.731  0.00  0.00    +0.000 OA
BRANCH16171619
ATOM   1619  OP1 U   B  11     -26.260  29.247 -32.518  0.00  0.00    +0.000 OA
ATOM   1620  H   U   B  11     -26.733  29.462 -33.337  0.00  0.00    +0.000 HD
ENDBRANCH16171619
BRANCH16171621
ATOM   1621  O3' U   B  10     -25.240  27.176 -33.442  0.00  0.00    +0.000 OA
BRANCH16211624
ATOM   1622  C4' U   B  10     -24.658  25.673 -35.272  0.00  0.00    +0.000 C 
ATOM   1623  O4' U   B  10     -23.624  24.671 -35.462  0.00  0.00    +0.000 OA
ATOM   1624  C3' U   B  10     -24.184  26.459 -34.073  0.00  0.00    +0.000 C 
ATOM   1625  C2' U   B  10     -23.572  25.376 -33.197  0.00  0.00    +0.000 C 
ATOM   1626  C1' U   B  10     -22.920  24.475 -34.250  0.00  0.00    +0.000 C 
BRANCH16261627
ATOM   1627  N1  U   B  10     -21.494  24.799 -34.467  0.00  0.00    +0.000 N 
ATOM   1628  C2  U   B  10     -20.581  24.331 -33.537  0.00  0.00    +0.000 A 
ATOM   1629  O2  U   B  10     -20.902  23.678 -32.560  0.00  0.00    +0.000 OA
ATOM   1630  N3  U   B  10     -19.270  24.658 -33.789  0.00  0.00    +0.000 N 
ATOM   1631  C4  U   B  10     -18.787  25.388 -34.851  0.00  0.00    +0.000 A 
ATOM   1632  O4  U   B  10     -17.577  25.598 -34.940  0.00  0.00    +0.000 OA
ATOM   1633  C5  U   B  10     -19.790  25.833 -35.767  0.00  0.00    +0.000 A 
ATOM   1634  C6  U   B  10     -21.076  25.529 -35.551  0.00  0.00    +0.000 A 
ATOM   1635  H   U   B  10     -18.604  24.335 -33.139  0.00  0.00    +0.000 HD
ENDBRANCH16261627
BRANCH16251636
ATOM   1636  O2' U   B  10     -24.564  24.640 -32.509  0.00  0.00    +0.000 OA
ATOM   1637  H   U   B  10     -25.191  24.266 -33.148  0.00  0.00    +0.000 HD
ENDBRANCH16251636
BRANCH16221638
ATOM   1638  C5' U   B  10     -24.848  26.469 -36.539  0.00  0.00    +0.000 C 
BRANCH16381639
ATOM   1639  O5' U   B  10     -23.692  27.254 -36.832  0.00  0.00    +0.000 OA
BRANCH16391640
ATOM   1640  P   U   B  10     -23.558  28.038 -38.205  0.00  0.00    +0.000 P 
ATOM   1641  OP1 U   B  10     -24.736  28.933 -38.334  0.00  0.00    +0.000 OA
BRANCH16401642
ATOM   1642  OP2 U   B  10     -22.191  28.609 -38.282  0.00  0.00    +0.000 OA
ATOM   1643  H   U   B  10     -22.089  29.093 -39.116  0.00  0.00    +0.000 HD
ENDBRANCH16401642
BRANCH16401644
ATOM   1644  O3' A   B   9     -23.713  26.891 -39.260  0.00  0.00    +0.000 OA
BRANCH16441647
ATOM   1645  C4' A   B   9     -22.557  25.574 -40.960  0.00  0.00    +0.000 C 
ATOM   1646  O4' A   B   9     -21.791  24.341 -40.931  0.00  0.00    +0.000 OA
ATOM   1647  C3' A   B   9     -22.647  25.976 -39.504  0.00  0.00    +0.000 C 
ATOM   1648  C2' A   B   9     -22.815  24.637 -38.808  0.00  0.00    +0.000 C 
ATOM   1649  C1' A   B   9     -21.884  23.755 -39.638  0.00  0.00    +0.000 C 
BRANCH16491650
ATOM   1650  N9  A   B   9     -20.536  23.662 -39.057  0.00  0.00    +0.000 N 
ATOM   1651  C8  A   B   9     -19.376  24.193 -39.542  0.00  0.00    +0.000 A 
ATOM   1652  N7  A   B   9     -18.322  23.934 -38.797  0.00  0.00    +0.000 NA
ATOM   1653  C5  A   B   9     -18.831  23.175 -37.751  0.00  0.00    +0.000 A 
ATOM   1654  C6  A   B   9     -18.229  22.590 -36.627  0.00  0.00    +0.000 A 
ATOM   1655  N6  A   B   9     -16.923  22.682 -36.351  0.00  0.00    +0.000 N 
ATOM   1656  N1  A   B   9     -19.014  21.901 -35.784  0.00  0.00    +0.000 NA
ATOM   1657  C2  A   B   9     -20.321  21.810 -36.063  0.00  0.00    +0.000 A 
ATOM   1658  N3  A   B   9     -21.002  22.319 -37.086  0.00  0.00    +0.000 NA
ATOM   1659  C4  A   B   9     -20.191  22.997 -37.903  0.00  0.00    +0.000 A 
ATOM   1660  H   A   B   9     -16.326  23.182 -36.954  0.00  0.00    +0.000 HD
ATOM   1661  H   A   B   9     -16.559  22.250 -35.545  0.00  0.00    +0.000 HD
ENDBRANCH16491650
BRANCH16481662
ATOM   1662  O2' A   B   9     -24.137  24.165 -38.917  0.00  0.00    +0.000 OA
ATOM   1663  H   A   B   9     -24.387  24.117 -39.853  0.00  0.00    +0.000 HD
ENDBRANCH16481662
BRANCH16451664
ATOM   1664  C5' A   B   9     -21.891  26.586 -41.868  0.00  0.00    +0.000 C 
BRANCH16641665
ATOM   1665  O5' A   B   9     -20.518  26.679 -41.546  0.00  0.00    +0.000 OA
BRANCH16651666
ATOM   1666  P   A   B   9     -19.820  28.073 -41.260  0.00  0.00    +0.000 P 
ATOM   1667  OP1 A   B   9     -20.383  29.075 -42.183  0.00  0.00    +0.000 OA
BRANCH16661668
ATOM   1668  OP2 A   B   9     -19.843  28.345 -39.809  0.00  0.00    +0.000 OA
ATOM   1669  H   A   B   9     -19.416  29.198 -39.633  0.00  0.00    +0.000 HD
ENDBRANCH16661668
BRANCH16661670
ATOM   1670  O3' U   B   8     -18.562  27.653 -41.618  0.00  0.00    +0.000 OA
BRANCH16701673
ATOM   1671  C4' U   B   8     -16.984  29.179 -42.689  0.00  0.00    +0.000 C 
ATOM   1672  O4' U   B   8     -16.504  29.347 -44.044  0.00  0.00    +0.000 OA
ATOM   1673  C3' U   B   8     -17.762  27.898 -42.771  0.00  0.00    +0.000 C 
ATOM   1674  C2' U   B   8     -18.468  28.041 -44.126  0.00  0.00    +0.000 C 
ATOM   1675  C1' U   B   8     -17.348  28.654 -44.958  0.00  0.00    +0.000 C 
BRANCH16751676
ATOM   1676  N1  U   B   8     -16.552  27.643 -45.671  0.00  0.00    +0.000 N 
ATOM   1677  C2  U   B   8     -17.001  27.253 -46.923  0.00  0.00    +0.000 A 
ATOM   1678  O2  U   B   8     -18.003  27.718 -47.436  0.00  0.00    +0.000 OA
ATOM   1679  N3  U   B   8     -16.230  26.306 -47.552  0.00  0.00    +0.000 N 
ATOM   1680  C4  U   B   8     -15.084  25.713 -47.069  0.00  0.00    +0.000 A 
ATOM   1681  O4  U   B   8     -14.507  24.876 -47.758  0.00  0.00    +0.000 OA
ATOM   1682  C5  U   B   8     -14.687  26.161 -45.774  0.00  0.00    +0.000 A 
ATOM   1683  C6  U   B   8     -15.417  27.087 -45.136  0.00  0.00    +0.000 A 
ATOM   1684  H   U   B   8     -16.529  26.020 -48.445  0.00  0.00    +0.000 HD
ENDBRANCH16751676
BRANCH16741685
ATOM   1685  O2' U   B   8     -19.547  28.946 -44.102  0.00  0.00    +0.000 OA
ATOM   1686  H   U   B   8     -19.236  29.812 -43.796  0.00  0.00    +0.000 HD
ENDBRANCH16741685
BRANCH16711687
ATOM   1687  C5' U   B   8     -15.858  29.175 -41.711  0.00  0.00    +0.000 C 
BRANCH16871688
ATOM   1688  O5' U   B   8     -15.119  27.959 -41.794  0.00  0.00    +0.000 OA
BRANCH16881689
ATOM   1689  P   U   B   8     -13.871  27.681 -40.848  0.00  0.00    +0.000 P 
ATOM   1690  OP2 U   B   8     -13.251  26.400 -41.281  0.00  0.00    +0.000 OA
BRANCH16891691
ATOM   1691  OP1 U   B   8     -14.291  27.853 -39.442  0.00  0.00    +0.000 OA
ATOM   1692  H   U   B   8     -14.889  27.131 -39.193  0.00  0.00    +0.000 HD
ENDBRANCH16891691
BRANCH16891693
ATOM   1693  O3' C   B   7     -12.904  28.887 -41.180  0.00  0.00    +0.000 OA
BRANCH16931696
ATOM   1694  C4' C   B   7     -10.965  29.617 -42.481  0.00  0.00    +0.000 C 
ATOM   1695  O4' C   B   7     -10.777  29.999 -43.871  0.00  0.00    +0.000 OA
ATOM   1696  C3' C   B   7     -12.321  28.946 -42.474  0.00  0.00    +0.000 C 
ATOM   1697  C2' C   B   7     -13.105  29.807 -43.451  0.00  0.00    +0.000 C 
ATOM   1698  C1' C   B   7     -12.038  30.106 -44.506  0.00  0.00    +0.000 C 
BRANCH16981699
ATOM   1699  N1  C   B   7     -12.089  29.168 -45.641  0.00  0.00    +0.000 N 
ATOM   1700  C2  C   B   7     -13.060  29.370 -46.628  0.00  0.00    +0.000 A 
ATOM   1701  O2  C   B   7     -13.841  30.327 -46.521  0.00  0.00    +0.000 OA
ATOM   1702  N3  C   B   7     -13.126  28.521 -47.678  0.00  0.00    +0.000 NA
ATOM   1703  C4  C   B   7     -12.273  27.499 -47.765  0.00  0.00    +0.000 A 
ATOM   1704  N4  C   B   7     -12.376  26.689 -48.816  0.00  0.00    +0.000 N 
ATOM   1705  C5  C   B   7     -11.278  27.271 -46.776  0.00  0.00    +0.000 A 
ATOM   1706  C6  C   B   7     -11.221  28.121 -45.745  0.00  0.00    +0.000 A 
ATOM   1707  H   C   B   7     -13.067  26.852 -49.498  0.00  0.00    +0.000 HD
ATOM   1708  H   C   B   7     -11.761  25.926 -48.912  0.00  0.00    +0.000 HD
ENDBRANCH16981699
BRANCH16971709
ATOM   1709  O2' C   B   7     -13.529  31.018 -42.866  0.00  0.00    +0.000 OA
ATOM   1710  H   C   B   7     -12.760  31.497 -42.520  0.00  0.00    +0.000 HD
ENDBRANCH16971709
BRANCH16941711
ATOM   1711  C5' C   B   7      -9.800  28.781 -42.014  0.00  0.00    +0.000 C 
BRANCH17111712
ATOM   1712  O5' C   B   7      -9.636  27.624 -42.823  0.00  0.00    +0.000 OA
BRANCH17121713
ATOM   1713  P   C   B   7      -8.284  26.786 -42.790  0.00  0.00    +0.000 P 
ATOM   1714  OP2 C   B   7      -8.396  25.707 -43.807  0.00  0.00    +0.000 OA
BRANCH17131715
ATOM   1715  OP1 C   B   7      -7.989  26.439 -41.375  0.00  0.00    +0.000 OA
ATOM   1716  H   C   B   7      -7.166  25.927 -41.332  0.00  0.00    +0.000 HD
ENDBRANCH17131715
BRANCH17131717
ATOM   1717  O3' A   B   6      -7.186  27.848 -43.273  0.00  0.00    +0.000 OA
BRANCH17171720
ATOM   1718  C4' A   B   6      -5.690  28.546 -45.084  0.00  0.00    +0.000 C 
ATOM   1719  O4' A   B   6      -5.883  29.318 -46.298  0.00  0.00    +0.000 OA
ATOM   1720  C3' A   B   6      -7.102  28.213 -44.642  0.00  0.00    +0.000 C 
ATOM   1721  C2' A   B   6      -7.841  29.497 -44.974  0.00  0.00    +0.000 C 
ATOM   1722  C1' A   B   6      -7.179  29.888 -46.292  0.00  0.00    +0.000 C 
BRANCH17221723
ATOM   1723  N9  A   B   6      -7.929  29.383 -47.452  0.00  0.00    +0.000 N 
ATOM   1724  C8  A   B   6      -7.671  28.274 -48.218  0.00  0.00    +0.000 A 
ATOM   1725  N7  A   B   6      -8.537  28.089 -49.185  0.00  0.00    +0.000 NA
ATOM   1726  C5  A   B   6      -9.422  29.146 -49.044  0.00  0.00    +0.000 A 
ATOM   1727  C6  A   B   6     -10.565  29.521 -49.760  0.00  0.00    +0.000 A 
ATOM   1728  N1  A   B   6     -11.221  30.628 -49.362  0.00  0.00    +0.000 NA
ATOM   1729  C2  A   B   6     -10.747  31.308 -48.311  0.00  0.00    +0.000 A 
ATOM   1730  N3  A   B   6      -9.682  31.057 -47.559  0.00  0.00    +0.000 NA
ATOM   1731  C4  A   B   6      -9.058  29.949 -47.983  0.00  0.00    +0.000 A 
BRANCH17271732
ATOM   1732  N6  A   B   6     -11.041  28.841 -50.809  0.00  0.00    +0.000 N 
ATOM   1733  H   A   B   6     -11.851  29.155 -51.273  0.00  0.00    +0.000 HD
ATOM   1734  H   A   B   6     -10.582  28.027 -51.117  0.00  0.00    +0.000 HD
ENDBRANCH17271732
ENDBRANCH17221723
BRANCH17211735
ATOM   1735  O2' A   B   6      -7.598  30.512 -44.017  0.00  0.00    +0.000 OA
ATOM   1736  H   A   B   6      -6.643  30.668 -43.947  0.00  0.00    +0.000 HD
ENDBRANCH17211735
BRANCH17181737
ATOM   1737  C5' A   B   6      -4.784  27.373 -45.358  0.00  0.00    +0.000 C 
BRANCH17371738
ATOM   1738  O5' A   B   6      -5.362  26.490 -46.310  0.00  0.00    +0.000 OA
BRANCH17381739
ATOM   1739  P   A   B   6      -4.480  25.364 -47.009  0.00  0.00    +0.000 P 
ATOM   1740  OP2 A   B   6      -5.348  24.641 -47.974  0.00  0.00    +0.000 OA
BRANCH17391741
ATOM   1741  OP1 A   B   6      -3.773  24.611 -45.945  0.00  0.00    +0.000 OA
ATOM   1742  H   A   B   6      -3.228  23.917 -46.348  0.00  0.00    +0.000 HD
ENDBRANCH17391741
BRANCH17391743
ATOM   1743  O3' U   B   5      -3.401  26.205 -47.831  0.00  0.00    +0.000 OA
BRANCH17431746
ATOM   1744  C4' U   B   5      -2.636  26.858 -50.062  0.00  0.00    +0.000 C 
ATOM   1745  O4' U   B   5      -3.022  27.905 -50.990  0.00  0.00    +0.000 OA
ATOM   1746  C3' U   B   5      -3.762  26.830 -49.053  0.00  0.00    +0.000 C 
ATOM   1747  C2' U   B   5      -4.090  28.310 -48.910  0.00  0.00    +0.000 C 
ATOM   1748  C1' U   B   5      -3.926  28.787 -50.354  0.00  0.00    +0.000 C 
BRANCH17481749
ATOM   1749  N1  U   B   5      -5.207  28.770 -51.093  0.00  0.00    +0.000 N 
ATOM   1750  C2  U   B   5      -6.041  29.863 -50.930  0.00  0.00    +0.000 A 
ATOM   1751  O2  U   B   5      -5.757  30.816 -50.222  0.00  0.00    +0.000 OA
ATOM   1752  N3  U   B   5      -7.222  29.802 -51.632  0.00  0.00    +0.000 N 
ATOM   1753  C4  U   B   5      -7.648  28.782 -52.457  0.00  0.00    +0.000 A 
ATOM   1754  O4  U   B   5      -8.736  28.872 -53.016  0.00  0.00    +0.000 OA
ATOM   1755  C5  U   B   5      -6.732  27.693 -52.572  0.00  0.00    +0.000 A 
ATOM   1756  C6  U   B   5      -5.574  27.727 -51.902  0.00  0.00    +0.000 A 
ATOM   1757  H   U   B   5      -7.830  30.570 -51.535  0.00  0.00    +0.000 HD
ENDBRANCH17481749
BRANCH17471758
ATOM   1758  O2' U   B   5      -3.152  28.985 -48.097  0.00  0.00    +0.000 OA
ATOM   1759  H   U   B   5      -2.261  28.859 -48.458  0.00  0.00    +0.000 HD
ENDBRANCH17471758
BRANCH17441760
ATOM   1760  C5' U   B   5      -2.390  25.573 -50.810  0.00  0.00    +0.000 C 
BRANCH17601761
ATOM   1761  O5' U   B   5      -3.588  25.085 -51.399  0.00  0.00    +0.000 OA
BRANCH17611762
ATOM   1762  P   U   B   5      -3.557  23.875 -52.431  0.00  0.00    +0.000 P 
ATOM   1763  OP2 U   B   5      -4.943  23.656 -52.929  0.00  0.00    +0.000 OA
BRANCH17621764
ATOM   1764  OP1 U   B   5      -2.814  22.756 -51.804  0.00  0.00    +0.000 OA
ATOM   1765  H   U   B   5      -2.782  22.005 -52.417  0.00  0.00    +0.000 HD
ENDBRANCH17621764
BRANCH17621766
ATOM   1766  O3' A   B   4      -2.676  24.434 -53.628  0.00  0.00    +0.000 OA
BRANCH17661769
ATOM   1767  C4' A   B   4      -2.687  25.184 -55.951  0.00  0.00    +0.000 C 
ATOM   1768  O4' A   B   4      -2.924  26.464 -56.589  0.00  0.00    +0.000 OA
ATOM   1769  C3' A   B   4      -3.227  25.367 -54.547  0.00  0.00    +0.000 C 
ATOM   1770  C2' A   B   4      -2.852  26.808 -54.244  0.00  0.00    +0.000 C 
ATOM   1771  C1' A   B   4      -3.078  27.466 -55.602  0.00  0.00    +0.000 C 
BRANCH17711772
ATOM   1772  N9  A   B   4      -4.429  28.039 -55.729  0.00  0.00    +0.000 N 
ATOM   1773  C8  A   B   4      -5.516  27.512 -56.380  0.00  0.00    +0.000 A 
ATOM   1774  N7  A   B   4      -6.587  28.263 -56.316  0.00  0.00    +0.000 NA
ATOM   1775  C5  A   B   4      -6.177  29.361 -55.572  0.00  0.00    +0.000 A 
ATOM   1776  C6  A   B   4      -6.844  30.520 -55.152  0.00  0.00    +0.000 A 
ATOM   1777  N6  A   B   4      -8.132  30.777 -55.429  0.00  0.00    +0.000 N 
ATOM   1778  N1  A   B   4      -6.152  31.419 -54.425  0.00  0.00    +0.000 NA
ATOM   1779  C2  A   B   4      -4.867  31.164 -54.147  0.00  0.00    +0.000 A 
ATOM   1780  N3  A   B   4      -4.128  30.113 -54.486  0.00  0.00    +0.000 NA
ATOM   1781  C4  A   B   4      -4.850  29.236 -55.206  0.00  0.00    +0.000 A 
ATOM   1782  H   A   B   4      -8.659  30.136 -55.958  0.00  0.00    +0.000 HD
ATOM   1783  H   A   B   4      -8.550  31.607 -55.103  0.00  0.00    +0.000 HD
ENDBRANCH17711772
BRANCH17701784
ATOM   1784  O2' A   B   4      -1.485  26.936 -53.893  0.00  0.00    +0.000 OA
ATOM   1785  H   A   B   4      -0.933  26.573 -54.604  0.00  0.00    +0.000 HD
ENDBRANCH17701784
BRANCH17671786
ATOM   1786  C5' A   B   4      -3.330  24.084 -56.760  0.00  0.00    +0.000 C 
BRANCH17861787
ATOM   1787  O5' A   B   4      -4.741  24.264 -56.833  0.00  0.00    +0.000 OA
BRANCH17871788
ATOM   1788  P   A   B   4      -5.628  23.366 -57.803  0.00  0.00    +0.000 P 
ATOM   1789  OP2 A   B   4      -7.037  23.821 -57.689  0.00  0.00    +0.000 OA
BRANCH17881790
ATOM   1790  OP1 A   B   4      -5.294  21.945 -57.548  0.00  0.00    +0.000 OA
ATOM   1791  H   A   B   4      -5.825  21.379 -58.130  0.00  0.00    +0.000 HD
ENDBRANCH17881790
BRANCH17881792
ATOM   1792  O3' A   B   3      -5.101  23.741 -59.247  0.00  0.00    +0.000 OA
BRANCH17921795
ATOM   1793  C4' A   B   3      -5.463  24.894 -61.370  0.00  0.00    +0.000 C 
ATOM   1794  O4' A   B   3      -5.373  26.281 -61.783  0.00  0.00    +0.000 OA
ATOM   1795  C3' A   B   3      -5.486  24.968 -59.857  0.00  0.00    +0.000 C 
ATOM   1796  C2' A   B   3      -4.522  26.108 -59.576  0.00  0.00    +0.000 C 
ATOM   1797  C1' A   B   3      -4.837  27.057 -60.728  0.00  0.00    +0.000 C 
BRANCH17971798
ATOM   1798  N9  A   B   3      -5.817  28.086 -60.348  0.00  0.00    +0.000 N 
ATOM   1799  C8  A   B   3      -7.148  28.151 -60.670  0.00  0.00    +0.000 A 
ATOM   1800  N7  A   B   3      -7.759  29.201 -60.178  0.00  0.00    +0.000 NA
ATOM   1801  C5  A   B   3      -6.760  29.873 -59.486  0.00  0.00    +0.000 A 
ATOM   1802  C6  A   B   3      -6.760  31.065 -58.742  0.00  0.00    +0.000 A 
ATOM   1803  N6  A   B   3      -7.848  31.826 -58.558  0.00  0.00    +0.000 N 
ATOM   1804  N1  A   B   3      -5.599  31.457 -58.181  0.00  0.00    +0.000 NA
ATOM   1805  C2  A   B   3      -4.508  30.699 -58.362  0.00  0.00    +0.000 A 
ATOM   1806  N3  A   B   3      -4.384  29.563 -59.041  0.00  0.00    +0.000 NA
ATOM   1807  C4  A   B   3      -5.562  29.199 -59.584  0.00  0.00    +0.000 A 
ATOM   1808  H   A   B   3      -8.708  31.561 -58.958  0.00  0.00    +0.000 HD
ATOM   1809  H   A   B   3      -7.787  32.650 -58.023  0.00  0.00    +0.000 HD
ENDBRANCH17971798
BRANCH17961810
ATOM   1810  O2' A   B   3      -3.172  25.692 -59.682  0.00  0.00    +0.000 OA
ATOM   1811  H   A   B   3      -3.019  25.311 -60.561  0.00  0.00    +0.000 HD
ENDBRANCH17961810
BRANCH17931812
ATOM   1812  C5' A   B   3      -6.659  24.241 -62.020  0.00  0.00    +0.000 C 
BRANCH18121813
ATOM   1813  O5' A   B   3      -7.865  24.905 -61.665  0.00  0.00    +0.000 OA
BRANCH18131814
ATOM   1814  P   A   B   3      -9.239  24.533 -62.379  0.00  0.00    +0.000 P 
ATOM   1815  OP1 A   B   3      -9.374  23.056 -62.378  0.00  0.00    +0.000 OA
BRANCH18141816
ATOM   1816  OP2 A   B   3     -10.307  25.373 -61.784  0.00  0.00    +0.000 OA
ATOM   1817  H   A   B   3     -11.155  25.163 -62.205  0.00  0.00    +0.000 HD
ENDBRANCH18141816
BRANCH18141818
ATOM   1818  O3' U   B   2      -9.022  25.003 -63.888  0.00  0.00    +0.000 OA
BRANCH18181821
ATOM   1819  C4' U   B   2      -9.506  26.647 -65.636  0.00  0.00    +0.000 C 
ATOM   1820  O4' U   B   2      -8.978  27.963 -65.946  0.00  0.00    +0.000 OA
ATOM   1821  C3' U   B   2      -9.035  26.390 -64.221  0.00  0.00    +0.000 C 
ATOM   1822  C2' U   B   2      -7.652  27.022 -64.219  0.00  0.00    +0.000 C 
ATOM   1823  C1' U   B   2      -7.891  28.254 -65.094  0.00  0.00    +0.000 C 
BRANCH18231824
ATOM   1824  N1  U   B   2      -8.217  29.452 -64.291  0.00  0.00    +0.000 N 
ATOM   1825  C2  U   B   2      -7.170  30.109 -63.667  0.00  0.00    +0.000 A 
ATOM   1826  O2  U   B   2      -6.010  29.740 -63.755  0.00  0.00    +0.000 OA
ATOM   1827  N3  U   B   2      -7.529  31.214 -62.934  0.00  0.00    +0.000 N 
ATOM   1828  C4  U   B   2      -8.801  31.721 -62.765  0.00  0.00    +0.000 A 
ATOM   1829  O4  U   B   2      -8.963  32.724 -62.076  0.00  0.00    +0.000 OA
ATOM   1830  C5  U   B   2      -9.826  30.988 -63.444  0.00  0.00    +0.000 A 
ATOM   1831  C6  U   B   2      -9.507  29.908 -64.166  0.00  0.00    +0.000 A 
ATOM   1832  H   U   B   2      -6.800  31.696 -62.480  0.00  0.00    +0.000 HD
ENDBRANCH18231824
BRANCH18221833
ATOM   1833  O2' U   B   2      -6.691  26.195 -64.850  0.00  0.00    +0.000 OA
ATOM   1834  H   U   B   2      -6.982  25.992 -65.753  0.00  0.00    +0.000 HD
ENDBRANCH18221833
BRANCH18191835
ATOM   1835  C5' U   B   2     -10.998  26.635 -65.842  0.00  0.00    +0.000 C 
BRANCH18351836
ATOM   1836  O5' U   B   2     -11.650  27.561 -64.982  0.00  0.00    +0.000 OA
BRANCH18361837
ATOM   1837  P   U   B   2     -13.216  27.835 -65.090  0.00  0.00    +0.000 P 
ATOM   1838  OP1 U   B   2     -13.915  26.530 -65.141  0.00  0.00    +0.000 OA
BRANCH18371839
ATOM   1839  OP2 U   B   2     -13.588  28.832 -64.057  0.00  0.00    +0.000 OA
ATOM   1840  H   U   B   2     -14.540  29.011 -64.108  0.00  0.00    +0.000 HD
ENDBRANCH18371839
BRANCH18371841
ATOM   1841  O3' C   B   1     -13.388  28.497 -66.561  0.00  0.00    +0.000 OA
BRANCH18411844
ATOM   1842  C4' C   B   1     -13.891  30.584 -67.716  0.00  0.00    +0.000 C 
ATOM   1843  O4' C   B   1     -13.084  31.676 -68.215  0.00  0.00    +0.000 OA
ATOM   1844  C3' C   B   1     -12.982  29.846 -66.762  0.00  0.00    +0.000 C 
ATOM   1845  C2' C   B   1     -11.631  29.984 -67.426  0.00  0.00    +0.000 C 
ATOM   1846  C1' C   B   1     -11.718  31.392 -68.005  0.00  0.00    +0.000 C 
BRANCH18461847
ATOM   1847  N1  C   B   1     -11.155  32.425 -67.113  0.00  0.00    +0.000 N 
ATOM   1848  C2  C   B   1      -9.772  32.538 -67.006  0.00  0.00    +0.000 A 
ATOM   1849  O2  C   B   1      -9.046  31.771 -67.664  0.00  0.00    +0.000 OA
ATOM   1850  N3  C   B   1      -9.243  33.482 -66.192  0.00  0.00    +0.000 NA
ATOM   1851  C4  C   B   1     -10.045  34.294 -65.502  0.00  0.00    +0.000 A 
ATOM   1852  N4  C   B   1      -9.483  35.210 -64.717  0.00  0.00    +0.000 N 
ATOM   1853  C5  C   B   1     -11.460  34.206 -65.590  0.00  0.00    +0.000 A 
ATOM   1854  C6  C   B   1     -11.966  33.267 -66.401  0.00  0.00    +0.000 A 
ATOM   1855  H   C   B   1      -8.502  35.271 -64.656  0.00  0.00    +0.000 HD
ATOM   1856  H   C   B   1     -10.048  35.826 -64.197  0.00  0.00    +0.000 HD
ENDBRANCH18461847
BRANCH18451857
ATOM   1857  O2' C   B   1     -11.477  29.056 -68.478  0.00  0.00    +0.000 OA
ATOM   1858  H   C   B   1     -12.199  29.168 -69.116  0.00  0.00    +0.000 HD
ENDBRANCH18451857
BRANCH18421859
ATOM   1859  C5' C   B   1     -15.146  31.131 -67.106  0.00  0.00    +0.000 C 
BRANCH18591860
ATOM   1860  O5' C   B   1     -14.837  31.981 -66.017  0.00  0.00    +0.000 OA
BRANCH18601862
ATOM   1861  OP3 C   B   1     -16.331  33.910 -65.812  0.00  0.00    +0.000 OA
ATOM   1862  P   C   B   1     -15.934  32.830 -65.224  0.00  0.00    +0.000 P 
BRANCH18621863
ATOM   1863  OP1 C   B   1     -16.924  31.901 -64.724  0.00  0.00    +0.000 OA
ATOM   1864  H   C   B   1     -17.379  31.481 -65.470  0.00  0.00    +0.000 HD
ENDBRANCH18621863
BRANCH18621865
ATOM   1865  OP2 C   B   1     -15.166  33.541 -64.169  0.00  0.00    +0.000 OA
ATOM   1866  H   C   B   1     -14.527  34.141 -64.584  0.00  0.00    +0.000 HD
ENDBRANCH18621865
ENDBRANCH18601862
ENDBRANCH18591860
ENDBRANCH18421859
ENDBRANCH18411844
ENDBRANCH18371841
ENDBRANCH18361837
ENDBRANCH18351836
ENDBRANCH18191835
ENDBRANCH18181821
ENDBRANCH18141818
ENDBRANCH18131814
ENDBRANCH18121813
ENDBRANCH17931812
ENDBRANCH17921795
ENDBRANCH17881792
ENDBRANCH17871788
ENDBRANCH17861787
ENDBRANCH17671786
ENDBRANCH17661769
ENDBRANCH17621766
ENDBRANCH17611762
ENDBRANCH17601761
ENDBRANCH17441760
ENDBRANCH17431746
ENDBRANCH17391743
ENDBRANCH17381739
ENDBRANCH17371738
ENDBRANCH17181737
ENDBRANCH17171720
ENDBRANCH17131717
ENDBRANCH17121713
ENDBRANCH17111712
ENDBRANCH16941711
ENDBRANCH16931696
ENDBRANCH16891693
ENDBRANCH16881689
ENDBRANCH16871688
ENDBRANCH16711687
ENDBRANCH16701673
ENDBRANCH16661670
ENDBRANCH16651666
ENDBRANCH16641665
ENDBRANCH16451664
ENDBRANCH16441647
ENDBRANCH16401644
ENDBRANCH16391640
ENDBRANCH16381639
ENDBRANCH16221638
ENDBRANCH16211624
ENDBRANCH16171621
ENDBRANCH16161617
ENDBRANCH16151616
ENDBRANCH15991615
ENDBRANCH15981601
ENDBRANCH15941598
ENDBRANCH15931594
ENDBRANCH15921593
ENDBRANCH15761592
ENDBRANCH15751578
ENDBRANCH15711575
ENDBRANCH15701571
ENDBRANCH15691570
ENDBRANCH15521569
ENDBRANCH15511554
ENDBRANCH15471551
ENDBRANCH15461547
ENDBRANCH15451546
ENDBRANCH15261545
ENDBRANCH15251528
ENDBRANCH15211525
ENDBRANCH15201521
ENDBRANCH15191520
ENDBRANCH15031519
ENDBRANCH15021505
ENDBRANCH14981502
ENDBRANCH14971498
ENDBRANCH14961497
ENDBRANCH14791496
ENDBRANCH14781481
ENDBRANCH14741478
ENDBRANCH14731474
ENDBRANCH14721473
ENDBRANCH14551472
ENDBRANCH14541457
ENDBRANCH14501454
ENDBRANCH14491450
ENDBRANCH14481449
ENDBRANCH14271448
ENDBRANCH14261429
ENDBRANCH14221426
ENDBRANCH14211422
ENDBRANCH14201421
ENDBRANCH14011420
ENDBRANCH14001403
ENDBRANCH13961400
ENDBRANCH13951396
ENDBRANCH13941395
ENDBRANCH13751394
ENDBRANCH13741377
ENDBRANCH13701374
ENDBRANCH13691370
ENDBRANCH13681369
ENDBRANCH13491368
ENDBRANCH13481351
ENDBRANCH13441348
ENDBRANCH13431344
ENDBRANCH13421343
ENDBRANCH13251342
ENDBRANCH13241327
ENDBRANCH13201324
ENDBRANCH13191320
ENDBRANCH13181319
ENDBRANCH13021318
ENDBRANCH13011304
ENDBRANCH12971301
ENDBRANCH12961297
ENDBRANCH12951296
ENDBRANCH12791295
ENDBRANCH12781281
ENDBRANCH12741278
ENDBRANCH12731274
ENDBRANCH12721273
ENDBRANCH12561272
ENDBRANCH12551258
ENDBRANCH12511255
ENDBRANCH12501251
ENDBRANCH12491250
ENDBRANCH12331249
ENDBRANCH12321235
ENDBRANCH12281232
ENDBRANCH12271228
ENDBRANCH12261227
ENDBRANCH12101226
ENDBRANCH12091212
ENDBRANCH12051209
ENDBRANCH12041205
ENDBRANCH12031204
ENDBRANCH11871203
ENDBRANCH11861189
ENDBRANCH11821186
ENDBRANCH11811182
ENDBRANCH11801181
ENDBRANCH11611180
ENDBRANCH11601163
ENDBRANCH11561160
ENDBRANCH11551156
ENDBRANCH11541155
ENDBRANCH11351154
ENDBRANCH11341137
ENDBRANCH11301134
ENDBRANCH11291130
ENDBRANCH11281129
ENDBRANCH11091128
ENDBRANCH11081111
ENDBRANCH11041108
ENDBRANCH11031104
ENDBRANCH11021103
ENDBRANCH10831102
ENDBRANCH10821085
ENDBRANCH10781082
ENDBRANCH10771078
ENDBRANCH10761077
ENDBRANCH10601076
ENDBRANCH10591062
ENDBRANCH10551059
ENDBRANCH10541055
ENDBRANCH10531054
ENDBRANCH10341053
ENDBRANCH10331036
ENDBRANCH10291033
ENDBRANCH10281029
ENDBRANCH10271028
ENDBRANCH10081027
ENDBRANCH10071010
ENDBRANCH10031007
ENDBRANCH10021003
ENDBRANCH10011002
ENDBRANCH 9851001
ENDBRANCH 984 987
ENDBRANCH 980 984
ENDBRANCH 979 980
ENDBRANCH 978 979
ENDBRANCH 959 978
ENDBRANCH 958 961
ENDBRANCH 954 958
ENDBRANCH 953 954
ENDBRANCH 952 953
ENDBRANCH   1 952
TORSDOF 619
