REMARK  Name = /storage/kiran-stuff/aaRS/phase2/energy_scoring/vina_182jobs/fulllength_shallow_thr_THR/ligand.h.pdb
REMARK  6 active torsions:
REMARK  status: ('A' for Active; 'I' for Inactive)
REMARK    1  A    between atoms: N_1  and  CA_2
REMARK    2  A    between atoms: CA_2  and  C_3
REMARK    3  A    between atoms: CA_2  and  CB_5
REMARK    4  A    between atoms: C_3  and  O_4
REMARK    5  A    between atoms: CB_5  and  OG1_6
REMARK    6  A    between atoms: CB_5  and  CG2_7
REMARK                            x       y       z     vdW  Elec       q    Type
REMARK                         _______ _______ _______ _____ _____    ______ ____
ROOT
ATOM      1  CA  THR C   1      41.189 -25.430   3.324  0.00  0.00    +0.000 C 
ENDROOT
BRANCH   1   2
ATOM      2  N   THR C   1      42.284 -25.037   2.468  0.00  0.00    +0.000 NA
ATOM      3  H   THR C   1      42.250 -25.576   1.603  0.00  0.00    +0.000 HD
ATOM      4  H   THR C   1      43.168 -25.214   2.944  0.00  0.00    +0.000 HD
ENDBRANCH   1   2
BRANCH   1   5
ATOM      5  C   THR C   1      39.841 -25.253   2.633  0.00  0.00    +0.000 C 
ATOM      6  OXT THR C   1      39.797 -24.640   1.562  0.00  0.00    +0.000 OA
BRANCH   5   7
ATOM      7  O   THR C   1      38.841 -25.749   3.167  0.00  0.00    +0.000 OA
ATOM      8  H   THR C   1      38.923 -26.206   3.981  0.00  0.00    +0.000 HD
ENDBRANCH   5   7
ENDBRANCH   1   5
BRANCH   1   9
ATOM      9  CB  THR C   1      41.206 -24.650   4.621  0.00  0.00    +0.000 C 
ATOM     10  CG2 THR C   1      41.909 -25.444   5.676  0.00  0.00    +0.000 C 
BRANCH   9  11
ATOM     11  OG1 THR C   1      41.838 -23.413   4.428  0.00  0.00    +0.000 OA
ATOM     12  H   THR C   1      42.752 -23.559   4.137  0.00  0.00    +0.000 HD
ENDBRANCH   9  11
ENDBRANCH   1   9
TORSDOF 5
