REMARK  Name = /storage/kiran-stuff/aaRS/phase2/energy_scoring/vina_182jobs/anc_prors_edit_MET_MET/ligand.h.pdb
REMARK  7 active torsions:
REMARK  status: ('A' for Active; 'I' for Inactive)
REMARK    1  A    between atoms: N_1  and  CA_2
REMARK    2  A    between atoms: CA_2  and  C_3
REMARK    3  A    between atoms: CA_2  and  CB_5
REMARK    4  A    between atoms: C_3  and  OXT_9
REMARK    5  A    between atoms: CB_5  and  CG_6
REMARK    6  A    between atoms: CG_6  and  SD_7
REMARK    7  A    between atoms: SD_7  and  CE_8
REMARK                            x       y       z     vdW  Elec       q    Type
REMARK                         _______ _______ _______ _____ _____    ______ ____
ROOT
ATOM      1  CA  MET B   1      11.712 -13.463  -9.939  0.00  0.00    +0.000 C 
ENDROOT
BRANCH   1   2
ATOM      2  N   MET B   1      10.844 -14.277  -9.071  0.00  0.00    +0.000 NA
ATOM      3  H   MET B   1      10.065 -14.645  -9.618  0.00  0.00    +0.000 HD
ATOM      4  H   MET B   1      10.483 -13.699  -8.312  0.00  0.00    +0.000 HD
ENDBRANCH   1   2
BRANCH   1   5
ATOM      5  C   MET B   1      12.192 -14.279 -11.137  0.00  0.00    +0.000 C 
ATOM      6  O   MET B   1      12.824 -13.743 -12.047  0.00  0.00    +0.000 OA
BRANCH   5   7
ATOM      7  OXT MET B   1      11.930 -15.483 -11.220  0.00  0.00    +0.000 OA
ATOM      8  H   MET B   1      11.450 -15.906 -10.536  0.00  0.00    +0.000 HD
ENDBRANCH   5   7
ENDBRANCH   1   5
BRANCH   1   9
ATOM      9  CB  MET B   1      12.871 -12.913  -9.134  0.00  0.00    +0.000 C 
BRANCH   9  10
ATOM     10  CG  MET B   1      13.225 -11.488  -9.500  0.00  0.00    +0.000 C 
BRANCH  10  11
ATOM     11  SD  MET B   1      14.258 -10.656  -8.310  0.00  0.00    +0.000 S 
ATOM     12  CE  MET B   1      15.779 -11.579  -8.334  0.00  0.00    +0.000 C 
ENDBRANCH  10  11
ENDBRANCH   9  10
ENDBRANCH   1   9
TORSDOF 6
