REMARK  Name = /storage/kiran-stuff/aaRS/phase2/energy_scoring/vina_182jobs/anc_prors_cat_LEU_LEU/ligand.h.pdb
REMARK  7 active torsions:
REMARK  status: ('A' for Active; 'I' for Inactive)
REMARK    1  A    between atoms: N_1  and  CA_2
REMARK    2  A    between atoms: CA_2  and  C_3
REMARK    3  A    between atoms: CA_2  and  CB_5
REMARK    4  A    between atoms: C_3  and  O_4
REMARK    5  A    between atoms: CB_5  and  CG_6
REMARK    6  A    between atoms: CG_6  and  CD1_7
REMARK    7  A    between atoms: CG_6  and  CD2_8
REMARK                            x       y       z     vdW  Elec       q    Type
REMARK                         _______ _______ _______ _____ _____    ______ ____
ROOT
ATOM      1  CA  LEU B   1      -6.852   9.608 -20.695  0.00  0.00    +0.000 C 
ENDROOT
BRANCH   1   2
ATOM      2  N   LEU B   1      -7.891   8.613 -20.969  0.00  0.00    +0.000 NA
ATOM      3  H   LEU B   1      -7.457   7.745 -21.283  0.00  0.00    +0.000 HD
ATOM      4  H   LEU B   1      -8.515   8.964 -21.697  0.00  0.00    +0.000 HD
ENDBRANCH   1   2
BRANCH   1   5
ATOM      5  C   LEU B   1      -7.472  10.925 -20.221  0.00  0.00    +0.000 C 
ATOM      6  OXT LEU B   1      -7.917  11.746 -21.031  0.00  0.00    +0.000 OA
BRANCH   5   7
ATOM      7  O   LEU B   1      -7.551  11.128 -19.000  0.00  0.00    +0.000 OA
ATOM      8  H   LEU B   1      -7.209  10.497 -18.397  0.00  0.00    +0.000 HD
ENDBRANCH   5   7
ENDBRANCH   1   5
BRANCH   1   9
ATOM      9  CB  LEU B   1      -5.996   9.854 -21.928  0.00  0.00    +0.000 C 
BRANCH   9  10
ATOM     10  CG  LEU B   1      -4.741   8.980 -21.991  0.00  0.00    +0.000 C 
ATOM     11  CD1 LEU B   1      -3.801   9.540 -23.074  0.00  0.00    +0.000 C 
ATOM     12  CD2 LEU B   1      -4.059   8.948 -20.652  0.00  0.00    +0.000 C 
ENDBRANCH   9  10
ENDBRANCH   1   9
TORSDOF 5
