REMARK  Name = /storage/kiran-stuff/aaRS/phase2/energy_scoring/vina_182jobs/anc_thrrs_cat_GLU_GLU/ligand.h.pdb
REMARK  7 active torsions:
REMARK  status: ('A' for Active; 'I' for Inactive)
REMARK    1  A    between atoms: N_1  and  CA_2
REMARK    2  A    between atoms: CA_2  and  C_3
REMARK    3  A    between atoms: CA_2  and  CB_5
REMARK    4  A    between atoms: C_3  and  O_4
REMARK    5  A    between atoms: CB_5  and  CG_6
REMARK    6  A    between atoms: CG_6  and  CD_7
REMARK    7  A    between atoms: CD_7  and  OE1_8
REMARK                            x       y       z     vdW  Elec       q    Type
REMARK                         _______ _______ _______ _____ _____    ______ ____
ROOT
ATOM      1  CA  GLU B   1       0.945   0.854  -4.416  0.00  0.00    +0.000 C 
ENDROOT
BRANCH   1   2
ATOM      2  N   GLU B   1      -0.425   0.355  -4.528  0.00  0.00    +0.000 NA
ATOM      3  H   GLU B   1      -0.917   0.874  -5.256  0.00  0.00    +0.000 HD
ATOM      4  H   GLU B   1      -0.907   0.479  -3.638  0.00  0.00    +0.000 HD
ENDBRANCH   1   2
BRANCH   1   5
ATOM      5  C   GLU B   1       1.687   0.759  -5.735  0.00  0.00    +0.000 C 
ATOM      6  OXT GLU B   1       1.247   0.091  -6.662  0.00  0.00    +0.000 OA
BRANCH   5   7
ATOM      7  O   GLU B   1       2.753   1.382  -5.883  0.00  0.00    +0.000 OA
ATOM      8  H   GLU B   1       3.096   1.895  -5.179  0.00  0.00    +0.000 HD
ENDBRANCH   5   7
ENDBRANCH   1   5
BRANCH   1   9
ATOM      9  CB  GLU B   1       1.697   0.072  -3.315  0.00  0.00    +0.000 C 
BRANCH   9  10
ATOM     10  CG  GLU B   1       2.561  -1.078  -3.811  0.00  0.00    +0.000 C 
BRANCH  10  11
ATOM     11  CD  GLU B   1       1.757  -2.282  -4.233  0.00  0.00    +0.000 C 
ATOM     12  OE2 GLU B   1       2.198  -3.006  -5.158  0.00  0.00    +0.000 OA
BRANCH  11  13
ATOM     13  OE1 GLU B   1       0.673  -2.522  -3.670  0.00  0.00    +0.000 OA
ATOM     14  H   GLU B   1       0.369  -1.962  -2.982  0.00  0.00    +0.000 HD
ENDBRANCH  11  13
ENDBRANCH  10  11
ENDBRANCH   9  10
ENDBRANCH   1   9
TORSDOF 7
