REMARK  Name = /storage/kiran-stuff/aaRS/phase2/energy_scoring/vina_182jobs/anc_thrrs_cat_GLU_GLU/ligand.h.pdb
REMARK  7 active torsions:
REMARK  status: ('A' for Active; 'I' for Inactive)
REMARK    1  A    between atoms: N_1  and  CA_2
REMARK    2  A    between atoms: CA_2  and  C_3
REMARK    3  A    between atoms: CA_2  and  CB_5
REMARK    4  A    between atoms: C_3  and  O_4
REMARK    5  A    between atoms: CB_5  and  CG_6
REMARK    6  A    between atoms: CG_6  and  CD_7
REMARK    7  A    between atoms: CD_7  and  OE1_8
REMARK                            x       y       z     vdW  Elec       q    Type
REMARK                         _______ _______ _______ _____ _____    ______ ____
ROOT
ATOM      1  CA  GLU B   1       0.739   0.654  -4.507  0.00  0.00    +0.000 C 
ENDROOT
BRANCH   1   2
ATOM      2  N   GLU B   1      -0.407  -0.244  -4.644  0.00  0.00    +0.000 NA
ATOM      3  H   GLU B   1      -1.164   0.242  -5.124  0.00  0.00    +0.000 HD
ATOM      4  H   GLU B   1      -0.723  -0.536  -3.719  0.00  0.00    +0.000 HD
ENDBRANCH   1   2
BRANCH   1   5
ATOM      5  C   GLU B   1       1.207   1.176  -5.852  0.00  0.00    +0.000 C 
ATOM      6  OXT GLU B   1       1.335   0.427  -6.812  0.00  0.00    +0.000 OA
BRANCH   5   7
ATOM      7  O   GLU B   1       1.450   2.388  -5.986  0.00  0.00    +0.000 OA
ATOM      8  H   GLU B   1       1.355   2.968  -5.257  0.00  0.00    +0.000 HD
ENDBRANCH   5   7
ENDBRANCH   1   5
BRANCH   1   9
ATOM      9  CB  GLU B   1       1.891  -0.076  -3.780  0.00  0.00    +0.000 C 
BRANCH   9  10
ATOM     10  CG  GLU B   1       2.519  -1.227  -4.551  0.00  0.00    +0.000 C 
BRANCH  10  11
ATOM     11  CD  GLU B   1       1.659  -2.466  -4.568  0.00  0.00    +0.000 C 
ATOM     12  OE2 GLU B   1       1.558  -3.113  -5.638  0.00  0.00    +0.000 OA
BRANCH  11  13
ATOM     13  OE1 GLU B   1       1.061  -2.809  -3.532  0.00  0.00    +0.000 OA
ATOM     14  H   GLU B   1       1.156  -2.305  -2.748  0.00  0.00    +0.000 HD
ENDBRANCH  11  13
ENDBRANCH  10  11
ENDBRANCH   9  10
ENDBRANCH   1   9
TORSDOF 7
