REMARK  Name = /storage/kiran-stuff/aaRS/phase2/energy_scoring/vina_182jobs/deep_thrrs_thr_THR/ligand.h.pdb
REMARK  6 active torsions:
REMARK  status: ('A' for Active; 'I' for Inactive)
REMARK    1  A    between atoms: N_1  and  CA_2
REMARK    2  A    between atoms: CA_2  and  C_3
REMARK    3  A    between atoms: CA_2  and  CB_5
REMARK    4  A    between atoms: C_3  and  O_4
REMARK    5  A    between atoms: CB_5  and  OG1_6
REMARK    6  A    between atoms: CB_5  and  CG2_7
REMARK                            x       y       z     vdW  Elec       q    Type
REMARK                         _______ _______ _______ _____ _____    ______ ____
ROOT
ATOM      1  CA  THR C   1       8.383  11.244  -4.607  0.00  0.00    +0.000 C 
ENDROOT
BRANCH   1   2
ATOM      2  N   THR C   1       9.599  10.455  -4.702  0.00  0.00    +0.000 NA
ATOM      3  H   THR C   1       9.358   9.479  -4.876  0.00  0.00    +0.000 HD
ATOM      4  H   THR C   1      10.120  10.527  -3.828  0.00  0.00    +0.000 HD
ENDBRANCH   1   2
BRANCH   1   5
ATOM      5  C   THR C   1       7.551  11.132  -5.859  0.00  0.00    +0.000 C 
ATOM      6  OXT THR C   1       8.098  11.144  -6.957  0.00  0.00    +0.000 OA
BRANCH   5   7
ATOM      7  O   THR C   1       6.319  11.094  -5.733  0.00  0.00    +0.000 OA
ATOM      8  H   THR C   1       5.936  11.086  -4.878  0.00  0.00    +0.000 HD
ENDBRANCH   5   7
ENDBRANCH   1   5
BRANCH   1   9
ATOM      9  CB  THR C   1       8.747  12.694  -4.349  0.00  0.00    +0.000 C 
ATOM     10  CG2 THR C   1       9.455  12.835  -3.044  0.00  0.00    +0.000 C 
BRANCH   9  11
ATOM     11  OG1 THR C   1       9.561  13.123  -5.435  0.00  0.00    +0.000 OA
ATOM     12  H   THR C   1      10.354  12.566  -5.485  0.00  0.00    +0.000 HD
ENDBRANCH   9  11
ENDBRANCH   1   9
TORSDOF 5
