REMARK  Name = /storage/kiran-stuff/aaRS/phase2/energy_scoring/vina_182jobs/deep_thrrs_thr_THR/ligand.h.pdb
REMARK  624 active torsions:
REMARK  status: ('A' for Active; 'I' for Inactive)
REMARK    1  A    between atoms: OP3_1  and  P_2
REMARK    2  A    between atoms: OP3_1  and  OP1_3
REMARK    3  A    between atoms: P_2  and  O5'_5
REMARK    4  A    between atoms: O5'_5  and  C5'_6
REMARK    5  A    between atoms: C5'_6  and  C4'_7
REMARK    6  A    between atoms: C3'_9  and  O3'_10
REMARK    7  A    between atoms: O3'_10  and  P_22
REMARK    8  A    between atoms: C2'_11  and  O2'_12
REMARK    9  A    between atoms: C1'_13  and  N1_14
REMARK   10  A    between atoms: P_22  and  OP1_23
REMARK   11  A    between atoms: P_22  and  O5'_25
REMARK   12  A    between atoms: O5'_25  and  C5'_26
REMARK   13  A    between atoms: C5'_26  and  C4'_27
REMARK   14  A    between atoms: C3'_29  and  O3'_30
REMARK   15  A    between atoms: O3'_30  and  P_42
REMARK   16  A    between atoms: C2'_31  and  O2'_32
REMARK   17  A    between atoms: C1'_33  and  N1_34
REMARK   18  A    between atoms: P_42  and  OP1_43
REMARK   19  A    between atoms: P_42  and  O5'_45
REMARK   20  A    between atoms: O5'_45  and  C5'_46
REMARK   21  A    between atoms: C5'_46  and  C4'_47
REMARK   22  A    between atoms: C3'_49  and  O3'_50
REMARK   23  A    between atoms: O3'_50  and  P_64
REMARK   24  A    between atoms: C2'_51  and  O2'_52
REMARK   25  A    between atoms: C1'_53  and  N9_54
REMARK   26  A    between atoms: C6_58  and  N6_59
REMARK   27  A    between atoms: P_64  and  OP1_65
REMARK   28  A    between atoms: P_64  and  O5'_67
REMARK   29  A    between atoms: O5'_67  and  C5'_68
REMARK   30  A    between atoms: C5'_68  and  C4'_69
REMARK   31  A    between atoms: C3'_71  and  O3'_72
REMARK   32  A    between atoms: O3'_72  and  P_86
REMARK   33  A    between atoms: C2'_73  and  O2'_74
REMARK   34  A    between atoms: C1'_75  and  N9_76
REMARK   35  A    between atoms: C6_80  and  N6_81
REMARK   36  A    between atoms: P_86  and  OP1_87
REMARK   37  A    between atoms: P_86  and  O5'_89
REMARK   38  A    between atoms: O5'_89  and  C5'_90
REMARK   39  A    between atoms: C5'_90  and  C4'_91
REMARK   40  A    between atoms: C3'_93  and  O3'_94
REMARK   41  A    between atoms: O3'_94  and  P_106
REMARK   42  A    between atoms: C2'_95  and  O2'_96
REMARK   43  A    between atoms: C1'_97  and  N1_98
REMARK   44  A    between atoms: P_106  and  OP2_108
REMARK   45  A    between atoms: P_106  and  O5'_109
REMARK   46  A    between atoms: O5'_109  and  C5'_110
REMARK   47  A    between atoms: C5'_110  and  C4'_111
REMARK   48  A    between atoms: C3'_113  and  O3'_114
REMARK   49  A    between atoms: O3'_114  and  P_128
REMARK   50  A    between atoms: C2'_115  and  O2'_116
REMARK   51  A    between atoms: C1'_117  and  N9_118
REMARK   52  A    between atoms: P_128  and  OP2_130
REMARK   53  A    between atoms: P_128  and  O5'_131
REMARK   54  A    between atoms: O5'_131  and  C5'_132
REMARK   55  A    between atoms: C5'_132  and  C4'_133
REMARK   56  A    between atoms: C3'_135  and  O3'_136
REMARK   57  A    between atoms: O3'_136  and  P_148
REMARK   58  A    between atoms: C2'_137  and  O2'_138
REMARK   59  A    between atoms: C1'_139  and  N1_140
REMARK   60  A    between atoms: P_148  and  OP2_150
REMARK   61  A    between atoms: P_148  and  O5'_151
REMARK   62  A    between atoms: O5'_151  and  C5'_152
REMARK   63  A    between atoms: C5'_152  and  C4'_153
REMARK   64  A    between atoms: C3'_155  and  O3'_156
REMARK   65  A    between atoms: O3'_156  and  P_168
REMARK   66  A    between atoms: C2'_157  and  O2'_158
REMARK   67  A    between atoms: C1'_159  and  N1_160
REMARK   68  A    between atoms: P_168  and  OP1_169
REMARK   69  A    between atoms: P_168  and  O5'_171
REMARK   70  A    between atoms: O5'_171  and  C5'_172
REMARK   71  A    between atoms: C5'_172  and  C4'_173
REMARK   72  A    between atoms: C3'_175  and  O3'_176
REMARK   73  A    between atoms: O3'_176  and  P_190
REMARK   74  A    between atoms: C2'_177  and  O2'_178
REMARK   75  A    between atoms: C1'_179  and  N9_180
REMARK   76  A    between atoms: C6_184  and  N6_185
REMARK   77  A    between atoms: P_190  and  OP2_192
REMARK   78  A    between atoms: P_190  and  O5'_193
REMARK   79  A    between atoms: O5'_193  and  C5'_194
REMARK   80  A    between atoms: C5'_194  and  C4'_195
REMARK   81  A    between atoms: C3'_197  and  O3'_198
REMARK   82  A    between atoms: O3'_198  and  P_210
REMARK   83  A    between atoms: C2'_199  and  O2'_200
REMARK   84  A    between atoms: C1'_201  and  N1_202
REMARK   85  A    between atoms: P_210  and  OP1_211
REMARK   86  A    between atoms: P_210  and  O5'_213
REMARK   87  A    between atoms: O5'_213  and  C5'_214
REMARK   88  A    between atoms: C5'_214  and  C4'_215
REMARK   89  A    between atoms: C3'_217  and  O3'_218
REMARK   90  A    between atoms: O3'_218  and  P_230
REMARK   91  A    between atoms: C2'_219  and  O2'_220
REMARK   92  A    between atoms: C1'_221  and  N1_222
REMARK   93  A    between atoms: P_230  and  OP1_231
REMARK   94  A    between atoms: P_230  and  O5'_233
REMARK   95  A    between atoms: O5'_233  and  C5'_234
REMARK   96  A    between atoms: C5'_234  and  C4'_235
REMARK   97  A    between atoms: C3'_237  and  O3'_238
REMARK   98  A    between atoms: O3'_238  and  P_250
REMARK   99  A    between atoms: C2'_239  and  O2'_240
REMARK  100  A    between atoms: C1'_241  and  N1_242
REMARK  101  A    between atoms: P_250  and  OP1_251
REMARK  102  A    between atoms: P_250  and  O5'_253
REMARK  103  A    between atoms: O5'_253  and  C5'_254
REMARK  104  A    between atoms: C5'_254  and  C4'_255
REMARK  105  A    between atoms: C3'_257  and  O3'_258
REMARK  106  A    between atoms: O3'_258  and  P_270
REMARK  107  A    between atoms: C2'_259  and  O2'_260
REMARK  108  A    between atoms: C1'_261  and  N1_262
REMARK  109  A    between atoms: P_270  and  OP1_271
REMARK  110  A    between atoms: P_270  and  O5'_273
REMARK  111  A    between atoms: O5'_273  and  C5'_274
REMARK  112  A    between atoms: C5'_274  and  C4'_275
REMARK  113  A    between atoms: C3'_277  and  O3'_278
REMARK  114  A    between atoms: O3'_278  and  P_292
REMARK  115  A    between atoms: C2'_279  and  O2'_280
REMARK  116  A    between atoms: C1'_281  and  N9_282
REMARK  117  A    between atoms: C6_286  and  N6_287
REMARK  118  A    between atoms: P_292  and  OP2_294
REMARK  119  A    between atoms: P_292  and  O5'_295
REMARK  120  A    between atoms: O5'_295  and  C5'_296
REMARK  121  A    between atoms: C5'_296  and  C4'_297
REMARK  122  A    between atoms: C3'_299  and  O3'_300
REMARK  123  A    between atoms: O3'_300  and  P_312
REMARK  124  A    between atoms: C2'_301  and  O2'_302
REMARK  125  A    between atoms: C1'_303  and  N1_304
REMARK  126  A    between atoms: P_312  and  OP1_313
REMARK  127  A    between atoms: P_312  and  O5'_315
REMARK  128  A    between atoms: O5'_315  and  C5'_316
REMARK  129  A    between atoms: C5'_316  and  C4'_317
REMARK  130  A    between atoms: C3'_319  and  O3'_320
REMARK  131  A    between atoms: O3'_320  and  P_332
REMARK  132  A    between atoms: C2'_321  and  O2'_322
REMARK  133  A    between atoms: C1'_323  and  N1_324
REMARK  134  A    between atoms: P_332  and  OP2_334
REMARK  135  A    between atoms: P_332  and  O5'_335
REMARK  136  A    between atoms: O5'_335  and  C5'_336
REMARK  137  A    between atoms: C5'_336  and  C4'_337
REMARK  138  A    between atoms: C3'_339  and  O3'_340
REMARK  139  A    between atoms: O3'_340  and  P_352
REMARK  140  A    between atoms: C2'_341  and  O2'_342
REMARK  141  A    between atoms: C1'_343  and  N1_344
REMARK  142  A    between atoms: P_352  and  OP2_354
REMARK  143  A    between atoms: P_352  and  O5'_355
REMARK  144  A    between atoms: O5'_355  and  C5'_356
REMARK  145  A    between atoms: C5'_356  and  C4'_357
REMARK  146  A    between atoms: C3'_359  and  O3'_360
REMARK  147  A    between atoms: O3'_360  and  P_375
REMARK  148  A    between atoms: C2'_361  and  O2'_362
REMARK  149  A    between atoms: C1'_363  and  N9_364
REMARK  150  A    between atoms: P_375  and  OP2_377
REMARK  151  A    between atoms: P_375  and  O5'_378
REMARK  152  A    between atoms: O5'_378  and  C5'_379
REMARK  153  A    between atoms: C5'_379  and  C4'_380
REMARK  154  A    between atoms: C3'_382  and  O3'_383
REMARK  155  A    between atoms: O3'_383  and  P_397
REMARK  156  A    between atoms: C2'_384  and  O2'_385
REMARK  157  A    between atoms: C1'_386  and  N9_387
REMARK  158  A    between atoms: P_397  and  OP1_398
REMARK  159  A    between atoms: P_397  and  O5'_400
REMARK  160  A    between atoms: O5'_400  and  C5'_401
REMARK  161  A    between atoms: C5'_401  and  C4'_402
REMARK  162  A    between atoms: C3'_404  and  O3'_405
REMARK  163  A    between atoms: O3'_405  and  P_419
REMARK  164  A    between atoms: C2'_406  and  O2'_407
REMARK  165  A    between atoms: C1'_408  and  N9_409
REMARK  166  A    between atoms: C6_413  and  N6_414
REMARK  167  A    between atoms: P_419  and  OP1_420
REMARK  168  A    between atoms: P_419  and  O5'_422
REMARK  169  A    between atoms: O5'_422  and  C5'_423
REMARK  170  A    between atoms: C5'_423  and  C4'_424
REMARK  171  A    between atoms: C3'_426  and  O3'_427
REMARK  172  A    between atoms: O3'_427  and  P_441
REMARK  173  A    between atoms: C2'_428  and  O2'_429
REMARK  174  A    between atoms: C1'_430  and  N9_431
REMARK  175  A    between atoms: C6_435  and  N6_436
REMARK  176  A    between atoms: P_441  and  OP1_442
REMARK  177  A    between atoms: P_441  and  O5'_444
REMARK  178  A    between atoms: O5'_444  and  C5'_445
REMARK  179  A    between atoms: C5'_445  and  C4'_446
REMARK  180  A    between atoms: C3'_448  and  O3'_449
REMARK  181  A    between atoms: O3'_449  and  P_461
REMARK  182  A    between atoms: C2'_450  and  O2'_451
REMARK  183  A    between atoms: C1'_452  and  N1_453
REMARK  184  A    between atoms: P_461  and  OP1_462
REMARK  185  A    between atoms: P_461  and  O5'_464
REMARK  186  A    between atoms: O5'_464  and  C5'_465
REMARK  187  A    between atoms: C5'_465  and  C4'_466
REMARK  188  A    between atoms: C3'_468  and  O3'_469
REMARK  189  A    between atoms: O3'_469  and  P_481
REMARK  190  A    between atoms: C2'_470  and  O2'_471
REMARK  191  A    between atoms: C1'_472  and  N1_473
REMARK  192  A    between atoms: P_481  and  OP1_482
REMARK  193  A    between atoms: P_481  and  O5'_484
REMARK  194  A    between atoms: O5'_484  and  C5'_485
REMARK  195  A    between atoms: C5'_485  and  C4'_486
REMARK  196  A    between atoms: C3'_488  and  O3'_489
REMARK  197  A    between atoms: O3'_489  and  P_501
REMARK  198  A    between atoms: C2'_490  and  O2'_491
REMARK  199  A    between atoms: C1'_492  and  N1_493
REMARK  200  A    between atoms: P_501  and  OP2_503
REMARK  201  A    between atoms: P_501  and  O5'_504
REMARK  202  A    between atoms: O5'_504  and  C5'_505
REMARK  203  A    between atoms: C5'_505  and  C4'_506
REMARK  204  A    between atoms: C3'_508  and  O3'_509
REMARK  205  A    between atoms: O3'_509  and  P_521
REMARK  206  A    between atoms: C2'_510  and  O2'_511
REMARK  207  A    between atoms: C1'_512  and  N1_513
REMARK  208  A    between atoms: P_521  and  OP2_523
REMARK  209  A    between atoms: P_521  and  O5'_524
REMARK  210  A    between atoms: O5'_524  and  C5'_525
REMARK  211  A    between atoms: C5'_525  and  C4'_526
REMARK  212  A    between atoms: C3'_528  and  O3'_529
REMARK  213  A    between atoms: O3'_529  and  P_541
REMARK  214  A    between atoms: C2'_530  and  O2'_531
REMARK  215  A    between atoms: C1'_532  and  N1_533
REMARK  216  A    between atoms: P_541  and  OP2_543
REMARK  217  A    between atoms: P_541  and  O5'_544
REMARK  218  A    between atoms: O5'_544  and  C5'_545
REMARK  219  A    between atoms: C5'_545  and  C4'_546
REMARK  220  A    between atoms: C3'_548  and  O3'_549
REMARK  221  A    between atoms: O3'_549  and  P_561
REMARK  222  A    between atoms: C2'_550  and  O2'_551
REMARK  223  A    between atoms: C1'_552  and  N1_553
REMARK  224  A    between atoms: P_561  and  OP2_563
REMARK  225  A    between atoms: P_561  and  O5'_564
REMARK  226  A    between atoms: O5'_564  and  C5'_565
REMARK  227  A    between atoms: C5'_565  and  C4'_566
REMARK  228  A    between atoms: C3'_568  and  O3'_569
REMARK  229  A    between atoms: O3'_569  and  P_581
REMARK  230  A    between atoms: C2'_570  and  O2'_571
REMARK  231  A    between atoms: C1'_572  and  N1_573
REMARK  232  A    between atoms: P_581  and  OP2_583
REMARK  233  A    between atoms: P_581  and  O5'_584
REMARK  234  A    between atoms: O5'_584  and  C5'_585
REMARK  235  A    between atoms: C5'_585  and  C4'_586
REMARK  236  A    between atoms: C3'_588  and  O3'_589
REMARK  237  A    between atoms: O3'_589  and  P_603
REMARK  238  A    between atoms: C2'_590  and  O2'_591
REMARK  239  A    between atoms: C1'_592  and  N9_593
REMARK  240  A    between atoms: P_603  and  OP2_605
REMARK  241  A    between atoms: P_603  and  O5'_606
REMARK  242  A    between atoms: O5'_606  and  C5'_607
REMARK  243  A    between atoms: C5'_607  and  C4'_608
REMARK  244  A    between atoms: C3'_610  and  O3'_611
REMARK  245  A    between atoms: O3'_611  and  P_625
REMARK  246  A    between atoms: C2'_612  and  O2'_613
REMARK  247  A    between atoms: C1'_614  and  N9_615
REMARK  248  A    between atoms: C6_619  and  N6_620
REMARK  249  A    between atoms: P_625  and  OP1_626
REMARK  250  A    between atoms: P_625  and  O5'_628
REMARK  251  A    between atoms: O5'_628  and  C5'_629
REMARK  252  A    between atoms: C5'_629  and  C4'_630
REMARK  253  A    between atoms: C3'_632  and  O3'_633
REMARK  254  A    between atoms: O3'_633  and  P_647
REMARK  255  A    between atoms: C2'_634  and  O2'_635
REMARK  256  A    between atoms: C1'_636  and  N9_637
REMARK  257  A    between atoms: C6_641  and  N6_642
REMARK  258  A    between atoms: P_647  and  OP1_648
REMARK  259  A    between atoms: P_647  and  O5'_650
REMARK  260  A    between atoms: O5'_650  and  C5'_651
REMARK  261  A    between atoms: C5'_651  and  C4'_652
REMARK  262  A    between atoms: C3'_654  and  O3'_655
REMARK  263  A    between atoms: O3'_655  and  P_669
REMARK  264  A    between atoms: C2'_656  and  O2'_657
REMARK  265  A    between atoms: C1'_658  and  N9_659
REMARK  266  A    between atoms: C6_663  and  N6_664
REMARK  267  A    between atoms: P_669  and  OP1_670
REMARK  268  A    between atoms: P_669  and  O5'_672
REMARK  269  A    between atoms: O5'_672  and  C5'_673
REMARK  270  A    between atoms: C5'_673  and  C4'_674
REMARK  271  A    between atoms: C3'_676  and  O3'_677
REMARK  272  A    between atoms: O3'_677  and  P_689
REMARK  273  A    between atoms: C2'_678  and  O2'_679
REMARK  274  A    between atoms: C1'_680  and  N1_681
REMARK  275  A    between atoms: P_689  and  OP1_690
REMARK  276  A    between atoms: P_689  and  O5'_692
REMARK  277  A    between atoms: O5'_692  and  C5'_693
REMARK  278  A    between atoms: C5'_693  and  C4'_694
REMARK  279  A    between atoms: C3'_696  and  O3'_697
REMARK  280  A    between atoms: O3'_697  and  P_711
REMARK  281  A    between atoms: C2'_698  and  O2'_699
REMARK  282  A    between atoms: C1'_700  and  N9_701
REMARK  283  A    between atoms: C6_705  and  N6_706
REMARK  284  A    between atoms: P_711  and  OP2_713
REMARK  285  A    between atoms: P_711  and  O5'_714
REMARK  286  A    between atoms: O5'_714  and  C5'_715
REMARK  287  A    between atoms: C5'_715  and  C4'_716
REMARK  288  A    between atoms: C3'_718  and  O3'_719
REMARK  289  A    between atoms: O3'_719  and  P_733
REMARK  290  A    between atoms: C2'_720  and  O2'_721
REMARK  291  A    between atoms: C1'_722  and  N9_723
REMARK  292  A    between atoms: P_733  and  OP2_735
REMARK  293  A    between atoms: P_733  and  O5'_736
REMARK  294  A    between atoms: O5'_736  and  C5'_737
REMARK  295  A    between atoms: C5'_737  and  C4'_738
REMARK  296  A    between atoms: C3'_740  and  O3'_741
REMARK  297  A    between atoms: O3'_741  and  P_753
REMARK  298  A    between atoms: C2'_742  and  O2'_743
REMARK  299  A    between atoms: C1'_744  and  N1_745
REMARK  300  A    between atoms: P_753  and  OP2_755
REMARK  301  A    between atoms: P_753  and  O5'_756
REMARK  302  A    between atoms: O5'_756  and  C5'_757
REMARK  303  A    between atoms: C5'_757  and  C4'_758
REMARK  304  A    between atoms: C3'_760  and  O3'_761
REMARK  305  A    between atoms: O3'_761  and  P_775
REMARK  306  A    between atoms: C2'_762  and  O2'_763
REMARK  307  A    between atoms: C1'_764  and  N9_765
REMARK  308  A    between atoms: P_775  and  OP2_777
REMARK  309  A    between atoms: P_775  and  O5'_778
REMARK  310  A    between atoms: O5'_778  and  C5'_779
REMARK  311  A    between atoms: C5'_779  and  C4'_780
REMARK  312  A    between atoms: C3'_782  and  O3'_783
REMARK  313  A    between atoms: O3'_783  and  P_795
REMARK  314  A    between atoms: C2'_784  and  O2'_785
REMARK  315  A    between atoms: C1'_786  and  N1_787
REMARK  316  A    between atoms: P_795  and  OP2_797
REMARK  317  A    between atoms: P_795  and  O5'_798
REMARK  318  A    between atoms: O5'_798  and  C5'_799
REMARK  319  A    between atoms: C5'_799  and  C4'_800
REMARK  320  A    between atoms: C3'_802  and  O3'_803
REMARK  321  A    between atoms: O3'_803  and  P_815
REMARK  322  A    between atoms: C2'_804  and  O2'_805
REMARK  323  A    between atoms: C1'_806  and  N1_807
REMARK  324  A    between atoms: P_815  and  OP2_817
REMARK  325  A    between atoms: P_815  and  O5'_818
REMARK  326  A    between atoms: O5'_818  and  C5'_819
REMARK  327  A    between atoms: C5'_819  and  C4'_820
REMARK  328  A    between atoms: C3'_822  and  O3'_823
REMARK  329  A    between atoms: O3'_823  and  P_835
REMARK  330  A    between atoms: C2'_824  and  O2'_825
REMARK  331  A    between atoms: C1'_826  and  N1_827
REMARK  332  A    between atoms: P_835  and  OP1_836
REMARK  333  A    between atoms: P_835  and  O5'_838
REMARK  334  A    between atoms: O5'_838  and  C5'_839
REMARK  335  A    between atoms: C5'_839  and  C4'_840
REMARK  336  A    between atoms: C3'_842  and  O3'_843
REMARK  337  A    between atoms: O3'_843  and  P_855
REMARK  338  A    between atoms: C2'_844  and  O2'_845
REMARK  339  A    between atoms: C1'_846  and  N1_847
REMARK  340  A    between atoms: P_855  and  OP2_857
REMARK  341  A    between atoms: P_855  and  O5'_858
REMARK  342  A    between atoms: O5'_858  and  C5'_859
REMARK  343  A    between atoms: C5'_859  and  C4'_860
REMARK  344  A    between atoms: C3'_862  and  O3'_863
REMARK  345  A    between atoms: O3'_863  and  P_875
REMARK  346  A    between atoms: C2'_864  and  O2'_865
REMARK  347  A    between atoms: C1'_866  and  N1_867
REMARK  348  A    between atoms: P_875  and  OP1_876
REMARK  349  A    between atoms: P_875  and  O5'_878
REMARK  350  A    between atoms: O5'_878  and  C5'_879
REMARK  351  A    between atoms: C5'_879  and  C4'_880
REMARK  352  A    between atoms: C3'_882  and  O3'_883
REMARK  353  A    between atoms: O3'_883  and  P_897
REMARK  354  A    between atoms: C2'_884  and  O2'_885
REMARK  355  A    between atoms: C1'_886  and  N9_887
REMARK  356  A    between atoms: C6_891  and  N6_892
REMARK  357  A    between atoms: P_897  and  OP2_899
REMARK  358  A    between atoms: P_897  and  O5'_900
REMARK  359  A    between atoms: O5'_900  and  C5'_901
REMARK  360  A    between atoms: C5'_901  and  C4'_902
REMARK  361  A    between atoms: C3'_904  and  O3'_905
REMARK  362  A    between atoms: O3'_905  and  P_917
REMARK  363  A    between atoms: C2'_906  and  O2'_907
REMARK  364  A    between atoms: C1'_908  and  N1_909
REMARK  365  A    between atoms: P_917  and  OP2_919
REMARK  366  A    between atoms: P_917  and  O5'_920
REMARK  367  A    between atoms: O5'_920  and  C5'_921
REMARK  368  A    between atoms: C5'_921  and  C4'_922
REMARK  369  A    between atoms: C3'_924  and  O3'_925
REMARK  370  A    between atoms: O3'_925  and  P_937
REMARK  371  A    between atoms: C2'_926  and  O2'_927
REMARK  372  A    between atoms: C1'_928  and  N1_929
REMARK  373  A    between atoms: P_937  and  OP2_939
REMARK  374  A    between atoms: P_937  and  O5'_940
REMARK  375  A    between atoms: O5'_940  and  C5'_941
REMARK  376  A    between atoms: C5'_941  and  C4'_942
REMARK  377  A    between atoms: C3'_944  and  O3'_945
REMARK  378  A    between atoms: O3'_945  and  P_957
REMARK  379  A    between atoms: C2'_946  and  O2'_947
REMARK  380  A    between atoms: C1'_948  and  N1_949
REMARK  381  A    between atoms: P_957  and  OP2_959
REMARK  382  A    between atoms: P_957  and  O5'_960
REMARK  383  A    between atoms: O5'_960  and  C5'_961
REMARK  384  A    between atoms: C5'_961  and  C4'_962
REMARK  385  A    between atoms: C3'_964  and  O3'_965
REMARK  386  A    between atoms: O3'_965  and  P_977
REMARK  387  A    between atoms: C2'_966  and  O2'_967
REMARK  388  A    between atoms: C1'_968  and  N1_969
REMARK  389  A    between atoms: P_977  and  OP2_979
REMARK  390  A    between atoms: P_977  and  O5'_980
REMARK  391  A    between atoms: O5'_980  and  C5'_981
REMARK  392  A    between atoms: C5'_981  and  C4'_982
REMARK  393  A    between atoms: C3'_984  and  O3'_985
REMARK  394  A    between atoms: O3'_985  and  P_999
REMARK  395  A    between atoms: C2'_986  and  O2'_987
REMARK  396  A    between atoms: C1'_988  and  N9_989
REMARK  397  A    between atoms: P_999  and  OP1_1000
REMARK  398  A    between atoms: P_999  and  O5'_1002
REMARK  399  A    between atoms: O5'_1002  and  C5'_1003
REMARK  400  A    between atoms: C5'_1003  and  C4'_1004
REMARK  401  A    between atoms: C3'_1006  and  O3'_1007
REMARK  402  A    between atoms: O3'_1007  and  P_1019
REMARK  403  A    between atoms: C2'_1008  and  O2'_1009
REMARK  404  A    between atoms: C1'_1010  and  N1_1011
REMARK  405  A    between atoms: P_1019  and  OP1_1020
REMARK  406  A    between atoms: P_1019  and  O5'_1022
REMARK  407  A    between atoms: O5'_1022  and  C5'_1023
REMARK  408  A    between atoms: C5'_1023  and  C4'_1024
REMARK  409  A    between atoms: C3'_1026  and  O3'_1027
REMARK  410  A    between atoms: O3'_1027  and  P_1039
REMARK  411  A    between atoms: C2'_1028  and  O2'_1029
REMARK  412  A    between atoms: C1'_1030  and  N1_1031
REMARK  413  A    between atoms: P_1039  and  OP1_1040
REMARK  414  A    between atoms: P_1039  and  O5'_1042
REMARK  415  A    between atoms: O5'_1042  and  C5'_1043
REMARK  416  A    between atoms: C5'_1043  and  C4'_1044
REMARK  417  A    between atoms: C3'_1046  and  O3'_1047
REMARK  418  A    between atoms: O3'_1047  and  P_1059
REMARK  419  A    between atoms: C2'_1048  and  O2'_1049
REMARK  420  A    between atoms: C1'_1050  and  N1_1051
REMARK  421  A    between atoms: P_1059  and  OP1_1060
REMARK  422  A    between atoms: P_1059  and  O5'_1062
REMARK  423  A    between atoms: O5'_1062  and  C5'_1063
REMARK  424  A    between atoms: C5'_1063  and  C4'_1064
REMARK  425  A    between atoms: C3'_1066  and  O3'_1067
REMARK  426  A    between atoms: O3'_1067  and  P_1079
REMARK  427  A    between atoms: C2'_1068  and  O2'_1069
REMARK  428  A    between atoms: C1'_1070  and  N1_1071
REMARK  429  A    between atoms: P_1079  and  OP1_1080
REMARK  430  A    between atoms: P_1079  and  O5'_1082
REMARK  431  A    between atoms: O5'_1082  and  C5'_1083
REMARK  432  A    between atoms: C5'_1083  and  C4'_1084
REMARK  433  A    between atoms: C3'_1086  and  O3'_1087
REMARK  434  A    between atoms: O3'_1087  and  P_1101
REMARK  435  A    between atoms: C2'_1088  and  O2'_1089
REMARK  436  A    between atoms: C1'_1090  and  N9_1091
REMARK  437  A    between atoms: C6_1095  and  N6_1096
REMARK  438  A    between atoms: P_1101  and  OP1_1102
REMARK  439  A    between atoms: P_1101  and  O5'_1104
REMARK  440  A    between atoms: O5'_1104  and  C5'_1105
REMARK  441  A    between atoms: C5'_1105  and  C4'_1106
REMARK  442  A    between atoms: C3'_1108  and  O3'_1109
REMARK  443  A    between atoms: O3'_1109  and  P_1123
REMARK  444  A    between atoms: C2'_1110  and  O2'_1111
REMARK  445  A    between atoms: C1'_1112  and  N9_1113
REMARK  446  A    between atoms: C6_1117  and  N6_1118
REMARK  447  A    between atoms: P_1123  and  OP2_1125
REMARK  448  A    between atoms: P_1123  and  O5'_1126
REMARK  449  A    between atoms: O5'_1126  and  C5'_1127
REMARK  450  A    between atoms: C5'_1127  and  C4'_1128
REMARK  451  A    between atoms: C3'_1130  and  O3'_1131
REMARK  452  A    between atoms: O3'_1131  and  P_1145
REMARK  453  A    between atoms: C2'_1132  and  O2'_1133
REMARK  454  A    between atoms: C1'_1134  and  N9_1135
REMARK  455  A    between atoms: P_1145  and  OP2_1147
REMARK  456  A    between atoms: P_1145  and  O5'_1148
REMARK  457  A    between atoms: O5'_1148  and  C5'_1149
REMARK  458  A    between atoms: C5'_1149  and  C4'_1150
REMARK  459  A    between atoms: C3'_1152  and  O3'_1153
REMARK  460  A    between atoms: O3'_1153  and  P_1167
REMARK  461  A    between atoms: C2'_1154  and  O2'_1155
REMARK  462  A    between atoms: C1'_1156  and  N9_1157
REMARK  463  A    between atoms: P_1167  and  OP2_1169
REMARK  464  A    between atoms: P_1167  and  O5'_1170
REMARK  465  A    between atoms: O5'_1170  and  C5'_1171
REMARK  466  A    between atoms: C5'_1171  and  C4'_1172
REMARK  467  A    between atoms: C3'_1174  and  O3'_1175
REMARK  468  A    between atoms: O3'_1175  and  P_1189
REMARK  469  A    between atoms: C2'_1176  and  O2'_1177
REMARK  470  A    between atoms: C1'_1178  and  N9_1179
REMARK  471  A    between atoms: P_1189  and  OP2_1191
REMARK  472  A    between atoms: P_1189  and  O5'_1192
REMARK  473  A    between atoms: O5'_1192  and  C5'_1193
REMARK  474  A    between atoms: C5'_1193  and  C4'_1194
REMARK  475  A    between atoms: C3'_1196  and  O3'_1197
REMARK  476  A    between atoms: O3'_1197  and  P_1209
REMARK  477  A    between atoms: C2'_1198  and  O2'_1199
REMARK  478  A    between atoms: C1'_1200  and  N1_1201
REMARK  479  A    between atoms: P_1209  and  OP2_1211
REMARK  480  A    between atoms: P_1209  and  O5'_1212
REMARK  481  A    between atoms: O5'_1212  and  C5'_1213
REMARK  482  A    between atoms: C5'_1213  and  C4'_1214
REMARK  483  A    between atoms: C3'_1216  and  O3'_1217
REMARK  484  A    between atoms: O3'_1217  and  P_1231
REMARK  485  A    between atoms: C2'_1218  and  O2'_1219
REMARK  486  A    between atoms: C1'_1220  and  N9_1221
REMARK  487  A    between atoms: P_1231  and  OP2_1233
REMARK  488  A    between atoms: P_1231  and  O5'_1234
REMARK  489  A    between atoms: O5'_1234  and  C5'_1235
REMARK  490  A    between atoms: C5'_1235  and  C4'_1236
REMARK  491  A    between atoms: C3'_1238  and  O3'_1239
REMARK  492  A    between atoms: O3'_1239  and  P_1254
REMARK  493  A    between atoms: C2'_1240  and  O2'_1241
REMARK  494  A    between atoms: C1'_1242  and  N9_1243
REMARK  495  A    between atoms: P_1254  and  OP2_1256
REMARK  496  A    between atoms: P_1254  and  O5'_1257
REMARK  497  A    between atoms: O5'_1257  and  C5'_1258
REMARK  498  A    between atoms: C5'_1258  and  C4'_1259
REMARK  499  A    between atoms: C3'_1261  and  O3'_1262
REMARK  500  A    between atoms: O3'_1262  and  P_1276
REMARK  501  A    between atoms: C2'_1263  and  O2'_1264
REMARK  502  A    between atoms: C1'_1265  and  N9_1266
REMARK  503  A    between atoms: P_1276  and  OP2_1278
REMARK  504  A    between atoms: P_1276  and  O5'_1279
REMARK  505  A    between atoms: O5'_1279  and  C5'_1280
REMARK  506  A    between atoms: C5'_1280  and  C4'_1281
REMARK  507  A    between atoms: C3'_1283  and  O3'_1284
REMARK  508  A    between atoms: O3'_1284  and  P_1296
REMARK  509  A    between atoms: C2'_1285  and  O2'_1286
REMARK  510  A    between atoms: C1'_1287  and  N1_1288
REMARK  511  A    between atoms: P_1296  and  OP2_1298
REMARK  512  A    between atoms: P_1296  and  O5'_1299
REMARK  513  A    between atoms: O5'_1299  and  C5'_1300
REMARK  514  A    between atoms: C5'_1300  and  C4'_1301
REMARK  515  A    between atoms: C3'_1303  and  O3'_1304
REMARK  516  A    between atoms: O3'_1304  and  P_1316
REMARK  517  A    between atoms: C2'_1305  and  O2'_1306
REMARK  518  A    between atoms: C1'_1307  and  N1_1308
REMARK  519  A    between atoms: P_1316  and  OP1_1317
REMARK  520  A    between atoms: P_1316  and  O5'_1319
REMARK  521  A    between atoms: O5'_1319  and  C5'_1320
REMARK  522  A    between atoms: C5'_1320  and  C4'_1321
REMARK  523  A    between atoms: C3'_1323  and  O3'_1324
REMARK  524  A    between atoms: O3'_1324  and  P_1338
REMARK  525  A    between atoms: C2'_1325  and  O2'_1326
REMARK  526  A    between atoms: C1'_1327  and  N9_1328
REMARK  527  A    between atoms: C6_1332  and  N6_1333
REMARK  528  A    between atoms: P_1338  and  OP2_1340
REMARK  529  A    between atoms: P_1338  and  O5'_1341
REMARK  530  A    between atoms: O5'_1341  and  C5'_1342
REMARK  531  A    between atoms: C5'_1342  and  C4'_1343
REMARK  532  A    between atoms: C3'_1345  and  O3'_1346
REMARK  533  A    between atoms: O3'_1346  and  P_1358
REMARK  534  A    between atoms: C2'_1347  and  O2'_1348
REMARK  535  A    between atoms: C1'_1349  and  N1_1350
REMARK  536  A    between atoms: P_1358  and  OP1_1359
REMARK  537  A    between atoms: P_1358  and  O5'_1361
REMARK  538  A    between atoms: O5'_1361  and  C5'_1362
REMARK  539  A    between atoms: C5'_1362  and  C4'_1363
REMARK  540  A    between atoms: C3'_1365  and  O3'_1366
REMARK  541  A    between atoms: O3'_1366  and  P_1380
REMARK  542  A    between atoms: C2'_1367  and  O2'_1368
REMARK  543  A    between atoms: C1'_1369  and  N9_1370
REMARK  544  A    between atoms: P_1380  and  OP1_1381
REMARK  545  A    between atoms: P_1380  and  O5'_1383
REMARK  546  A    between atoms: O5'_1383  and  C5'_1384
REMARK  547  A    between atoms: C5'_1384  and  C4'_1385
REMARK  548  A    between atoms: C3'_1387  and  O3'_1388
REMARK  549  A    between atoms: O3'_1388  and  P_1402
REMARK  550  A    between atoms: C2'_1389  and  O2'_1390
REMARK  551  A    between atoms: C1'_1391  and  N9_1392
REMARK  552  A    between atoms: P_1402  and  OP2_1404
REMARK  553  A    between atoms: P_1402  and  O5'_1405
REMARK  554  A    between atoms: O5'_1405  and  C5'_1406
REMARK  555  A    between atoms: C5'_1406  and  C4'_1407
REMARK  556  A    between atoms: C3'_1409  and  O3'_1410
REMARK  557  A    between atoms: O3'_1410  and  P_1424
REMARK  558  A    between atoms: C2'_1411  and  O2'_1412
REMARK  559  A    between atoms: C1'_1413  and  N9_1414
REMARK  560  A    between atoms: P_1424  and  OP2_1426
REMARK  561  A    between atoms: P_1424  and  O5'_1427
REMARK  562  A    between atoms: O5'_1427  and  C5'_1428
REMARK  563  A    between atoms: C5'_1428  and  C4'_1429
REMARK  564  A    between atoms: C3'_1431  and  O3'_1432
REMARK  565  A    between atoms: O3'_1432  and  P_1446
REMARK  566  A    between atoms: C2'_1433  and  O2'_1434
REMARK  567  A    between atoms: C1'_1435  and  N9_1436
REMARK  568  A    between atoms: P_1446  and  OP2_1448
REMARK  569  A    between atoms: P_1446  and  O5'_1449
REMARK  570  A    between atoms: O5'_1449  and  C5'_1450
REMARK  571  A    between atoms: C5'_1450  and  C4'_1451
REMARK  572  A    between atoms: C3'_1453  and  O3'_1454
REMARK  573  A    between atoms: O3'_1454  and  P_1468
REMARK  574  A    between atoms: C2'_1455  and  O2'_1456
REMARK  575  A    between atoms: C1'_1457  and  N9_1458
REMARK  576  A    between atoms: C6_1462  and  N6_1463
REMARK  577  A    between atoms: P_1468  and  OP2_1470
REMARK  578  A    between atoms: P_1468  and  O5'_1471
REMARK  579  A    between atoms: O5'_1471  and  C5'_1472
REMARK  580  A    between atoms: C5'_1472  and  C4'_1473
REMARK  581  A    between atoms: C3'_1475  and  O3'_1476
REMARK  582  A    between atoms: O3'_1476  and  P_1488
REMARK  583  A    between atoms: C2'_1477  and  O2'_1478
REMARK  584  A    between atoms: C1'_1479  and  N1_1480
REMARK  585  A    between atoms: P_1488  and  OP2_1490
REMARK  586  A    between atoms: P_1488  and  O5'_1491
REMARK  587  A    between atoms: O5'_1491  and  C5'_1492
REMARK  588  A    between atoms: C5'_1492  and  C4'_1493
REMARK  589  A    between atoms: C3'_1495  and  O3'_1496
REMARK  590  A    between atoms: O3'_1496  and  P_1508
REMARK  591  A    between atoms: C2'_1497  and  O2'_1498
REMARK  592  A    between atoms: C1'_1499  and  N1_1500
REMARK  593  A    between atoms: P_1508  and  OP2_1510
REMARK  594  A    between atoms: P_1508  and  O5'_1511
REMARK  595  A    between atoms: O5'_1511  and  C5'_1512
REMARK  596  A    between atoms: C5'_1512  and  C4'_1513
REMARK  597  A    between atoms: C3'_1515  and  O3'_1516
REMARK  598  A    between atoms: O3'_1516  and  P_1528
REMARK  599  A    between atoms: C2'_1517  and  O2'_1518
REMARK  600  A    between atoms: C1'_1519  and  N1_1520
REMARK  601  A    between atoms: P_1528  and  OP2_1530
REMARK  602  A    between atoms: P_1528  and  O5'_1531
REMARK  603  A    between atoms: O5'_1531  and  C5'_1532
REMARK  604  A    between atoms: C5'_1532  and  C4'_1533
REMARK  605  A    between atoms: C3'_1535  and  O3'_1536
REMARK  606  A    between atoms: O3'_1536  and  P_1548
REMARK  607  A    between atoms: C2'_1537  and  O2'_1538
REMARK  608  A    between atoms: C1'_1539  and  N1_1540
REMARK  609  A    between atoms: P_1548  and  OP1_1549
REMARK  610  A    between atoms: P_1548  and  O5'_1551
REMARK  611  A    between atoms: O5'_1551  and  C5'_1552
REMARK  612  A    between atoms: C5'_1552  and  C4'_1553
REMARK  613  A    between atoms: C3'_1555  and  O3'_1556
REMARK  614  A    between atoms: O3'_1556  and  P_1568
REMARK  615  A    between atoms: C2'_1557  and  O2'_1558
REMARK  616  A    between atoms: C1'_1559  and  N1_1560
REMARK  617  A    between atoms: P_1568  and  OP1_1569
REMARK  618  A    between atoms: P_1568  and  O5'_1571
REMARK  619  A    between atoms: O5'_1571  and  C5'_1572
REMARK  620  A    between atoms: C5'_1572  and  C4'_1573
REMARK  621  A    between atoms: C3'_1575  and  O3'_1576
REMARK  622  A    between atoms: C2'_1577  and  O2'_1578
REMARK  623  A    between atoms: C1'_1579  and  N9_1580
REMARK  624  A    between atoms: C6_1584  and  N6_1585
REMARK                            x       y       z     vdW  Elec       q    Type
REMARK                         _______ _______ _______ _____ _____    ______ ____
ROOT
ATOM      1  P   U   B  39     -52.970 -35.289 -12.107  0.00  0.00    +0.000 P 
ATOM      2  OP1 U   B  39     -53.135 -35.767 -13.495  0.00  0.00    +0.000 OA
ENDROOT
BRANCH   1   3
ATOM      3  OP2 U   B  39     -53.973 -34.369 -11.516  0.00  0.00    +0.000 OA
ATOM      4  H   U   B  39     -54.067 -33.587 -12.082  0.00  0.00    +0.000 HD
ENDBRANCH   1   3
BRANCH   1   5
ATOM      5  O5' U   B  39     -52.848 -36.552 -11.151  0.00  0.00    +0.000 OA
BRANCH   5   6
ATOM      6  C5' U   B  39     -51.884 -37.563 -11.387  0.00  0.00    +0.000 C 
BRANCH   6   7
ATOM      7  C4' U   B  39     -51.700 -38.426 -10.166  0.00  0.00    +0.000 C 
ATOM      8  O4' U   B  39     -51.306 -37.603  -9.037  0.00  0.00    +0.000 OA
ATOM      9  C3' U   B  39     -52.936 -39.147  -9.679  0.00  0.00    +0.000 C 
ATOM     10  C2' U   B  39     -52.609 -39.411  -8.213  0.00  0.00    +0.000 C 
ATOM     11  C1' U   B  39     -51.843 -38.136  -7.844  0.00  0.00    +0.000 C 
BRANCH  11  12
ATOM     12  N1  U   B  39     -52.706 -37.117  -7.205  0.00  0.00    +0.000 N 
ATOM     13  C2  U   B  39     -52.947 -37.238  -5.847  0.00  0.00    +0.000 A 
ATOM     14  O2  U   B  39     -52.482 -38.142  -5.168  0.00  0.00    +0.000 OA
ATOM     15  N3  U   B  39     -53.758 -36.263  -5.312  0.00  0.00    +0.000 N 
ATOM     16  C4  U   B  39     -54.335 -35.198  -5.977  0.00  0.00    +0.000 A 
ATOM     17  O4  U   B  39     -55.039 -34.407  -5.356  0.00  0.00    +0.000 OA
ATOM     18  C5  U   B  39     -54.036 -35.142  -7.372  0.00  0.00    +0.000 A 
ATOM     19  C6  U   B  39     -53.248 -36.079  -7.927  0.00  0.00    +0.000 A 
ATOM     20  H   U   B  39     -53.948 -36.332  -4.349  0.00  0.00    +0.000 HD
ENDBRANCH  11  12
BRANCH  10  21
ATOM     21  O2' U   B  39     -51.760 -40.527  -8.066  0.00  0.00    +0.000 OA
ATOM     22  H   U   B  39     -50.956 -40.393  -8.591  0.00  0.00    +0.000 HD
ENDBRANCH  10  21
BRANCH   9  23
ATOM     23  O3' U   B  39     -53.194 -40.326 -10.427  0.00  0.00    +0.000 OA
BRANCH  23  24
ATOM     24  P   C   B  40     -54.638 -40.998 -10.460  0.00  0.00    +0.000 P 
ATOM     25  OP1 C   B  40     -54.893 -41.568 -11.804  0.00  0.00    +0.000 OA
BRANCH  24  26
ATOM     26  OP2 C   B  40     -55.651 -40.094  -9.868  0.00  0.00    +0.000 OA
ATOM     27  H   C   B  40     -55.841 -39.372 -10.487  0.00  0.00    +0.000 HD
ENDBRANCH  24  26
BRANCH  24  28
ATOM     28  O5' C   B  40     -54.305 -42.186  -9.476  0.00  0.00    +0.000 OA
BRANCH  28  29
ATOM     29  C5' C   B  40     -55.327 -42.890  -8.821  0.00  0.00    +0.000 C 
BRANCH  29  30
ATOM     30  C4' C   B  40     -55.387 -42.573  -7.361  0.00  0.00    +0.000 C 
ATOM     31  O4' C   B  40     -55.918 -41.233  -7.194  0.00  0.00    +0.000 OA
ATOM     32  C3' C   B  40     -56.302 -43.500  -6.570  0.00  0.00    +0.000 C 
ATOM     33  C2' C   B  40     -57.610 -42.731  -6.572  0.00  0.00    +0.000 C 
ATOM     34  C1' C   B  40     -57.100 -41.293  -6.422  0.00  0.00    +0.000 C 
BRANCH  34  35
ATOM     35  N1  C   B  40     -58.038 -40.264  -6.894  0.00  0.00    +0.000 N 
ATOM     36  C2  C   B  40     -58.773 -39.556  -5.937  0.00  0.00    +0.000 A 
ATOM     37  O2  C   B  40     -58.608 -39.804  -4.735  0.00  0.00    +0.000 OA
ATOM     38  N3  C   B  40     -59.656 -38.611  -6.358  0.00  0.00    +0.000 NA
ATOM     39  C4  C   B  40     -59.813 -38.364  -7.659  0.00  0.00    +0.000 A 
ATOM     40  N4  C   B  40     -60.681 -37.433  -8.028  0.00  0.00    +0.000 N 
ATOM     41  C5  C   B  40     -59.080 -39.077  -8.648  0.00  0.00    +0.000 A 
ATOM     42  C6  C   B  40     -58.212 -40.007  -8.226  0.00  0.00    +0.000 A 
ATOM     43  H   C   B  40     -60.813 -37.234  -8.983  0.00  0.00    +0.000 HD
ATOM     44  H   C   B  40     -61.194 -36.940  -7.347  0.00  0.00    +0.000 HD
ENDBRANCH  34  35
BRANCH  33  45
ATOM     45  O2' C   B  40     -58.489 -43.070  -5.532  0.00  0.00    +0.000 OA
ATOM     46  H   C   B  40     -58.050 -42.928  -4.679  0.00  0.00    +0.000 HD
ENDBRANCH  33  45
BRANCH  32  47
ATOM     47  O3' C   B  40     -55.861 -43.630  -5.223  0.00  0.00    +0.000 OA
BRANCH  47  48
ATOM     48  P   U   B  41     -54.698 -43.980  -4.535  0.00  0.00    +0.000 P 
ATOM     49  OP2 U   B  41     -54.098 -42.731  -4.095  0.00  0.00    +0.000 OA
BRANCH  48  50
ATOM     50  OP1 U   B  41     -55.098 -45.018  -3.574  0.00  0.00    +0.000 OA
ATOM     51  H   U   B  41     -55.476 -45.773  -4.052  0.00  0.00    +0.000 HD
ENDBRANCH  48  50
BRANCH  48  52
ATOM     52  O5' U   B  41     -53.664 -44.647  -5.578  0.00  0.00    +0.000 OA
BRANCH  52  53
ATOM     53  C5' U   B  41     -52.401 -45.110  -5.061  0.00  0.00    +0.000 C 
BRANCH  53  54
ATOM     54  C4' U   B  41     -52.570 -46.525  -4.543  0.00  0.00    +0.000 C 
ATOM     55  O4' U   B  41     -52.852 -47.395  -5.657  0.00  0.00    +0.000 OA
ATOM     56  C3' U   B  41     -51.343 -47.125  -3.870  0.00  0.00    +0.000 C 
ATOM     57  C2' U   B  41     -51.510 -48.613  -4.104  0.00  0.00    +0.000 C 
ATOM     58  C1' U   B  41     -52.252 -48.653  -5.448  0.00  0.00    +0.000 C 
BRANCH  58  59
ATOM     59  N1  U   B  41     -51.384 -48.946  -6.607  0.00  0.00    +0.000 N 
ATOM     60  C2  U   B  41     -50.999 -50.251  -6.811  0.00  0.00    +0.000 A 
ATOM     61  O2  U   B  41     -51.321 -51.161  -6.065  0.00  0.00    +0.000 OA
ATOM     62  N3  U   B  41     -50.204 -50.465  -7.916  0.00  0.00    +0.000 N 
ATOM     63  C4  U   B  41     -49.777 -49.520  -8.824  0.00  0.00    +0.000 A 
ATOM     64  O4  U   B  41     -49.075 -49.869  -9.768  0.00  0.00    +0.000 OA
ATOM     65  C5  U   B  41     -50.220 -48.196  -8.552  0.00  0.00    +0.000 A 
ATOM     66  C6  U   B  41     -50.999 -47.957  -7.479  0.00  0.00    +0.000 A 
ATOM     67  H   U   B  41     -49.910 -51.391  -8.074  0.00  0.00    +0.000 HD
ENDBRANCH  58  59
BRANCH  57  68
ATOM     68  O2' U   B  41     -52.334 -49.213  -3.110  0.00  0.00    +0.000 OA
ATOM     69  H   U   B  41     -53.196 -48.768  -3.093  0.00  0.00    +0.000 HD
ENDBRANCH  57  68
BRANCH  56  70
ATOM     70  O3' U   B  41     -51.336 -46.784  -2.482  0.00  0.00    +0.000 OA
BRANCH  70  71
ATOM     71  P   U   B  42     -50.141 -46.738  -1.510  0.00  0.00    +0.000 P 
ATOM     72  OP1 U   B  42     -49.610 -48.073  -1.397  0.00  0.00    +0.000 OA
BRANCH  71  73
ATOM     73  OP2 U   B  42     -50.644 -46.030  -0.325  0.00  0.00    +0.000 OA
ATOM     74  H   U   B  42     -50.961 -45.151  -0.584  0.00  0.00    +0.000 HD
ENDBRANCH  71  73
BRANCH  71  75
ATOM     75  O5' U   B  42     -49.006 -45.811  -2.124  0.00  0.00    +0.000 OA
BRANCH  75  76
ATOM     76  C5' U   B  42     -47.742 -45.523  -1.522  0.00  0.00    +0.000 C 
BRANCH  76  77
ATOM     77  C4' U   B  42     -47.808 -44.980  -0.115  0.00  0.00    +0.000 C 
ATOM     78  O4' U   B  42     -47.825 -46.096   0.805  0.00  0.00    +0.000 OA
ATOM     79  C3' U   B  42     -46.630 -44.132   0.331  0.00  0.00    +0.000 C 
ATOM     80  C2' U   B  42     -46.519 -44.371   1.825  0.00  0.00    +0.000 C 
ATOM     81  C1' U   B  42     -47.205 -45.720   2.009  0.00  0.00    +0.000 C 
BRANCH  81  82
ATOM     82  N1  U   B  42     -46.295 -46.786   2.491  0.00  0.00    +0.000 N 
ATOM     83  C2  U   B  42     -45.229 -47.184   1.726  0.00  0.00    +0.000 A 
ATOM     84  O2  U   B  42     -44.958 -46.704   0.642  0.00  0.00    +0.000 OA
ATOM     85  N3  U   B  42     -44.462 -48.193   2.269  0.00  0.00    +0.000 N 
ATOM     86  C4  U   B  42     -44.652 -48.823   3.487  0.00  0.00    +0.000 A 
ATOM     87  O4  U   B  42     -43.875 -49.709   3.837  0.00  0.00    +0.000 OA
ATOM     88  C5  U   B  42     -45.778 -48.353   4.227  0.00  0.00    +0.000 A 
ATOM     89  C6  U   B  42     -46.550 -47.379   3.710  0.00  0.00    +0.000 A 
ATOM     90  H   U   B  42     -43.696 -48.499   1.732  0.00  0.00    +0.000 HD
ENDBRANCH  81  82
BRANCH  80  91
ATOM     91  O2' U   B  42     -47.205 -43.388   2.564  0.00  0.00    +0.000 OA
ATOM     92  H   U   B  42     -48.136 -43.371   2.293  0.00  0.00    +0.000 HD
ENDBRANCH  80  91
BRANCH  79  93
ATOM     93  O3' U   B  42     -46.823 -42.753   0.045  0.00  0.00    +0.000 OA
BRANCH  93  94
ATOM     94  P   A   B  43     -46.281 -41.860  -1.042  0.00  0.00    +0.000 P 
ATOM     95  OP2 A   B  43     -46.177 -42.731  -2.214  0.00  0.00    +0.000 OA
BRANCH  94  96
ATOM     96  OP1 A   B  43     -47.155 -40.652  -1.087  0.00  0.00    +0.000 OA
ATOM     97  H   A   B  43     -46.838 -40.049  -1.778  0.00  0.00    +0.000 HD
ENDBRANCH  94  96
BRANCH  94  98
ATOM     98  O5' A   B  43     -44.825 -41.347  -0.630  0.00  0.00    +0.000 OA
BRANCH  98  99
ATOM     99  C5' A   B  43     -43.702 -42.198  -0.551  0.00  0.00    +0.000 C 
BRANCH  99 100
ATOM    100  C4' A   B  43     -42.581 -41.748  -1.459  0.00  0.00    +0.000 C 
ATOM    101  O4' A   B  43     -42.510 -42.645  -2.602  0.00  0.00    +0.000 OA
ATOM    102  C3' A   B  43     -42.688 -40.339  -2.039  0.00  0.00    +0.000 C 
ATOM    103  C2' A   B  43     -43.275 -40.592  -3.425  0.00  0.00    +0.000 C 
ATOM    104  C1' A   B  43     -42.565 -41.888  -3.793  0.00  0.00    +0.000 C 
BRANCH 104 105
ATOM    105  N9  A   B  43     -43.228 -42.679  -4.824  0.00  0.00    +0.000 N 
ATOM    106  C8  A   B  43     -44.491 -43.203  -4.822  0.00  0.00    +0.000 A 
ATOM    107  N7  A   B  43     -44.785 -43.878  -5.909  0.00  0.00    +0.000 NA
ATOM    108  C5  A   B  43     -43.632 -43.786  -6.678  0.00  0.00    +0.000 A 
ATOM    109  C6  A   B  43     -43.290 -44.285  -7.945  0.00  0.00    +0.000 A 
ATOM    110  N1  A   B  43     -42.059 -44.010  -8.423  0.00  0.00    +0.000 NA
ATOM    111  C2  A   B  43     -41.228 -43.284  -7.669  0.00  0.00    +0.000 A 
ATOM    112  N3  A   B  43     -41.429 -42.757  -6.467  0.00  0.00    +0.000 NA
ATOM    113  C4  A   B  43     -42.666 -43.049  -6.025  0.00  0.00    +0.000 A 
BRANCH 109 114
ATOM    114  N6  A   B  43     -44.119 -45.017  -8.698  0.00  0.00    +0.000 N 
ATOM    115  H   A   B  43     -43.826 -45.341  -9.580  0.00  0.00    +0.000 HD
ATOM    116  H   A   B  43     -45.022 -45.231  -8.370  0.00  0.00    +0.000 HD
ENDBRANCH 109 114
ENDBRANCH 104 105
BRANCH 103 117
ATOM    117  O2' A   B  43     -43.015 -39.565  -4.380  0.00  0.00    +0.000 OA
ATOM    118  H   A   B  43     -42.057 -39.441  -4.469  0.00  0.00    +0.000 HD
ENDBRANCH 103 117
BRANCH 102 119
ATOM    119  O3' A   B  43     -41.367 -39.805  -2.211  0.00  0.00    +0.000 OA
BRANCH 119 120
ATOM    120  P   C   B  44     -40.819 -38.589  -1.453  0.00  0.00    +0.000 P 
ATOM    121  OP1 C   B  44     -39.789 -37.943  -2.299  0.00  0.00    +0.000 OA
BRANCH 120 122
ATOM    122  OP2 C   B  44     -40.462 -39.054  -0.086  0.00  0.00    +0.000 OA
ATOM    123  H   C   B  44     -39.712 -39.667  -0.139  0.00  0.00    +0.000 HD
ENDBRANCH 120 122
BRANCH 120 124
ATOM    124  O5' C   B  44     -42.049 -37.591  -1.313  0.00  0.00    +0.000 OA
BRANCH 124 125
ATOM    125  C5' C   B  44     -42.533 -36.823  -2.415  0.00  0.00    +0.000 C 
BRANCH 125 126
ATOM    126  C4' C   B  44     -43.661 -35.924  -1.976  0.00  0.00    +0.000 C 
ATOM    127  O4' C   B  44     -44.517 -36.642  -1.045  0.00  0.00    +0.000 OA
ATOM    128  C3' C   B  44     -43.257 -34.674  -1.219  0.00  0.00    +0.000 C 
ATOM    129  C2' C   B  44     -44.501 -34.357  -0.397  0.00  0.00    +0.000 C 
ATOM    130  C1' C   B  44     -44.996 -35.769  -0.044  0.00  0.00    +0.000 C 
BRANCH 130 131
ATOM    131  N1  C   B  44     -44.524 -36.243   1.276  0.00  0.00    +0.000 N 
ATOM    132  C2  C   B  44     -45.122 -35.749   2.442  0.00  0.00    +0.000 A 
ATOM    133  O2  C   B  44     -46.037 -34.913   2.348  0.00  0.00    +0.000 OA
ATOM    134  N3  C   B  44     -44.690 -36.193   3.650  0.00  0.00    +0.000 NA
ATOM    135  C4  C   B  44     -43.707 -37.096   3.722  0.00  0.00    +0.000 A 
ATOM    136  N4  C   B  44     -43.322 -37.503   4.928  0.00  0.00    +0.000 N 
ATOM    137  C5  C   B  44     -43.082 -37.617   2.554  0.00  0.00    +0.000 A 
ATOM    138  C6  C   B  44     -43.517 -37.173   1.365  0.00  0.00    +0.000 A 
ATOM    139  H   C   B  44     -42.601 -38.167   5.016  0.00  0.00    +0.000 HD
ATOM    140  H   C   B  44     -43.758 -37.140   5.733  0.00  0.00    +0.000 HD
ENDBRANCH 130 131
BRANCH 129 141
ATOM    141  O2' C   B  44     -45.471 -33.694  -1.170  0.00  0.00    +0.000 OA
ATOM    142  H   C   B  44     -45.685 -34.230  -1.949  0.00  0.00    +0.000 HD
ENDBRANCH 129 141
BRANCH 128 143
ATOM    143  O3' C   B  44     -42.889 -33.613  -2.100  0.00  0.00    +0.000 OA
BRANCH 143 144
ATOM    144  P   U   B  45     -41.600 -32.713  -1.765  0.00  0.00    +0.000 P 
ATOM    145  OP1 U   B  45     -40.403 -33.589  -1.710  0.00  0.00    +0.000 OA
BRANCH 144 146
ATOM    146  OP2 U   B  45     -41.931 -31.843  -0.611  0.00  0.00    +0.000 OA
ATOM    147  H   U   B  45     -42.736 -31.339  -0.807  0.00  0.00    +0.000 HD
ENDBRANCH 144 146
BRANCH 144 148
ATOM    148  O5' U   B  45     -41.490 -31.798  -3.070  0.00  0.00    +0.000 OA
BRANCH 148 149
ATOM    149  C5' U   B  45     -41.214 -32.365  -4.351  0.00  0.00    +0.000 C 
BRANCH 149 150
ATOM    150  C4' U   B  45     -41.730 -31.470  -5.451  0.00  0.00    +0.000 C 
ATOM    151  O4' U   B  45     -43.178 -31.566  -5.524  0.00  0.00    +0.000 OA
ATOM    152  C3' U   B  45     -41.468 -29.992  -5.261  0.00  0.00    +0.000 C 
ATOM    153  C2' U   B  45     -42.562 -29.341  -6.106  0.00  0.00    +0.000 C 
ATOM    154  C1' U   B  45     -43.730 -30.307  -5.870  0.00  0.00    +0.000 C 
BRANCH 154 155
ATOM    155  N1  U   B  45     -44.623 -29.867  -4.775  0.00  0.00    +0.000 N 
ATOM    156  C2  U   B  45     -45.454 -28.783  -5.004  0.00  0.00    +0.000 A 
ATOM    157  O2  U   B  45     -45.477 -28.170  -6.058  0.00  0.00    +0.000 OA
ATOM    158  N3  U   B  45     -46.266 -28.437  -3.947  0.00  0.00    +0.000 N 
ATOM    159  C4  U   B  45     -46.332 -29.052  -2.711  0.00  0.00    +0.000 A 
ATOM    160  O4  U   B  45     -47.114 -28.625  -1.863  0.00  0.00    +0.000 OA
ATOM    161  C5  U   B  45     -45.447 -30.164  -2.554  0.00  0.00    +0.000 A 
ATOM    162  C6  U   B  45     -44.646 -30.527  -3.569  0.00  0.00    +0.000 A 
ATOM    163  H   U   B  45     -46.865 -27.668  -4.087  0.00  0.00    +0.000 HD
ENDBRANCH 154 155
BRANCH 153 164
ATOM    164  O2' U   B  45     -42.232 -29.343  -7.480  0.00  0.00    +0.000 OA
ATOM    165  H   U   B  45     -42.056 -30.252  -7.769  0.00  0.00    +0.000 HD
ENDBRANCH 153 164
BRANCH 152 166
ATOM    166  O3' U   B  45     -40.157 -29.618  -5.660  0.00  0.00    +0.000 OA
BRANCH 166 167
ATOM    167  P   U   B  46     -39.287 -28.623  -4.742  0.00  0.00    +0.000 P 
ATOM    168  OP1 U   B  46     -37.950 -28.469  -5.370  0.00  0.00    +0.000 OA
BRANCH 167 169
ATOM    169  OP2 U   B  46     -39.397 -29.082  -3.335  0.00  0.00    +0.000 OA
ATOM    170  H   U   B  46     -38.928 -29.925  -3.232  0.00  0.00    +0.000 HD
ENDBRANCH 167 169
BRANCH 167 171
ATOM    171  O5' U   B  46     -40.064 -27.240  -4.885  0.00  0.00    +0.000 OA
BRANCH 171 172
ATOM    172  C5' U   B  46     -40.146 -26.568  -6.136  0.00  0.00    +0.000 C 
BRANCH 172 173
ATOM    173  C4' U   B  46     -41.180 -25.469  -6.100  0.00  0.00    +0.000 C 
ATOM    174  O4' U   B  46     -42.491 -26.034  -5.835  0.00  0.00    +0.000 OA
ATOM    175  C3' U   B  46     -41.007 -24.433  -5.013  0.00  0.00    +0.000 C 
ATOM    176  C2' U   B  46     -42.417 -23.859  -4.892  0.00  0.00    +0.000 C 
ATOM    177  C1' U   B  46     -43.264 -25.120  -5.080  0.00  0.00    +0.000 C 
BRANCH 177 178
ATOM    178  N1  U   B  46     -43.626 -25.746  -3.789  0.00  0.00    +0.000 N 
ATOM    179  C2  U   B  46     -44.688 -25.192  -3.086  0.00  0.00    +0.000 A 
ATOM    180  O2  U   B  46     -45.312 -24.224  -3.490  0.00  0.00    +0.000 OA
ATOM    181  N3  U   B  46     -44.992 -25.808  -1.893  0.00  0.00    +0.000 N 
ATOM    182  C4  U   B  46     -44.357 -26.900  -1.339  0.00  0.00    +0.000 A 
ATOM    183  O4  U   B  46     -44.745 -27.342  -0.256  0.00  0.00    +0.000 OA
ATOM    184  C5  U   B  46     -43.272 -27.414  -2.121  0.00  0.00    +0.000 A 
ATOM    185  C6  U   B  46     -42.953 -26.835  -3.290  0.00  0.00    +0.000 A 
ATOM    186  H   U   B  46     -45.742 -25.429  -1.381  0.00  0.00    +0.000 HD
ENDBRANCH 177 178
BRANCH 176 187
ATOM    187  O2' U   B  46     -42.704 -22.951  -5.937  0.00  0.00    +0.000 OA
ATOM    188  H   U   B  46     -42.573 -23.390  -6.792  0.00  0.00    +0.000 HD
ENDBRANCH 176 187
BRANCH 175 189
ATOM    189  O3' U   B  46     -40.024 -23.459  -5.336  0.00  0.00    +0.000 OA
BRANCH 189 190
ATOM    190  P   U   B  47     -39.195 -22.743  -4.167  0.00  0.00    +0.000 P 
ATOM    191  OP1 U   B  47     -38.085 -21.985  -4.795  0.00  0.00    +0.000 OA
BRANCH 190 192
ATOM    192  OP2 U   B  47     -38.903 -23.749  -3.112  0.00  0.00    +0.000 OA
ATOM    193  H   U   B  47     -38.263 -24.395  -3.450  0.00  0.00    +0.000 HD
ENDBRANCH 190 192
BRANCH 190 194
ATOM    194  O5' U   B  47     -40.248 -21.697  -3.580  0.00  0.00    +0.000 OA
BRANCH 194 195
ATOM    195  C5' U   B  47     -40.761 -20.642  -4.386  0.00  0.00    +0.000 C 
BRANCH 195 196
ATOM    196  C4' U   B  47     -41.919 -19.940  -3.714  0.00  0.00    +0.000 C 
ATOM    197  O4' U   B  47     -43.006 -20.878  -3.484  0.00  0.00    +0.000 OA
ATOM    198  C3' U   B  47     -41.643 -19.369  -2.344  0.00  0.00    +0.000 C 
ATOM    199  C2' U   B  47     -43.050 -19.243  -1.764  0.00  0.00    +0.000 C 
ATOM    200  C1' U   B  47     -43.710 -20.513  -2.312  0.00  0.00    +0.000 C 
BRANCH 200 201
ATOM    201  N1  U   B  47     -43.660 -21.632  -1.347  0.00  0.00    +0.000 N 
ATOM    202  C2  U   B  47     -44.605 -21.640  -0.330  0.00  0.00    +0.000 A 
ATOM    203  O2  U   B  47     -45.453 -20.771  -0.208  0.00  0.00    +0.000 OA
ATOM    204  N3  U   B  47     -44.522 -22.704   0.541  0.00  0.00    +0.000 N 
ATOM    205  C4  U   B  47     -43.608 -23.738   0.503  0.00  0.00    +0.000 A 
ATOM    206  O4  U   B  47     -43.658 -24.624   1.357  0.00  0.00    +0.000 OA
ATOM    207  C5  U   B  47     -42.666 -23.658  -0.571  0.00  0.00    +0.000 A 
ATOM    208  C6  U   B  47     -42.722 -22.634  -1.437  0.00  0.00    +0.000 A 
ATOM    209  H   U   B  47     -45.185 -22.730   1.268  0.00  0.00    +0.000 HD
ENDBRANCH 200 201
BRANCH 199 210
ATOM    210  O2' U   B  47     -43.729 -18.113  -2.273  0.00  0.00    +0.000 OA
ATOM    211  H   U   B  47     -43.751 -18.158  -3.242  0.00  0.00    +0.000 HD
ENDBRANCH 199 210
BRANCH 198 212
ATOM    212  O3' U   B  47     -40.942 -18.133  -2.398  0.00  0.00    +0.000 OA
BRANCH 212 213
ATOM    213  P   A   B  48     -39.973 -17.722  -1.190  0.00  0.00    +0.000 P 
ATOM    214  OP1 A   B  48     -39.167 -16.558  -1.637  0.00  0.00    +0.000 OA
BRANCH 213 215
ATOM    215  OP2 A   B  48     -39.293 -18.942  -0.681  0.00  0.00    +0.000 OA
ATOM    216  H   A   B  48     -38.663 -19.262  -1.345  0.00  0.00    +0.000 HD
ENDBRANCH 213 215
BRANCH 213 217
ATOM    217  O5' A   B  48     -41.000 -17.227  -0.070  0.00  0.00    +0.000 OA
BRANCH 217 218
ATOM    218  C5' A   B  48     -41.830 -16.093  -0.291  0.00  0.00    +0.000 C 
BRANCH 218 219
ATOM    219  C4' A   B  48     -42.892 -15.971   0.776  0.00  0.00    +0.000 C 
ATOM    220  O4' A   B  48     -43.758 -17.135   0.746  0.00  0.00    +0.000 OA
ATOM    221  C3' A   B  48     -42.388 -15.929   2.204  0.00  0.00    +0.000 C 
ATOM    222  C2' A   B  48     -43.616 -16.379   2.990  0.00  0.00    +0.000 C 
ATOM    223  C1' A   B  48     -44.195 -17.443   2.057  0.00  0.00    +0.000 C 
BRANCH 223 224
ATOM    224  N9  A   B  48     -43.733 -18.798   2.396  0.00  0.00    +0.000 N 
ATOM    225  C8  A   B  48     -42.743 -19.535   1.799  0.00  0.00    +0.000 A 
ATOM    226  N7  A   B  48     -42.572 -20.722   2.334  0.00  0.00    +0.000 NA
ATOM    227  C5  A   B  48     -43.513 -20.771   3.351  0.00  0.00    +0.000 A 
ATOM    228  C6  A   B  48     -43.843 -21.763   4.287  0.00  0.00    +0.000 A 
ATOM    229  N6  A   B  48     -43.228 -22.952   4.358  0.00  0.00    +0.000 N 
ATOM    230  N1  A   B  48     -44.830 -21.494   5.166  0.00  0.00    +0.000 NA
ATOM    231  C2  A   B  48     -45.442 -20.306   5.097  0.00  0.00    +0.000 A 
ATOM    232  N3  A   B  48     -45.224 -19.294   4.260  0.00  0.00    +0.000 NA
ATOM    233  C4  A   B  48     -44.235 -19.593   3.402  0.00  0.00    +0.000 A 
ATOM    234  H   A   B  48     -42.505 -23.171   3.727  0.00  0.00    +0.000 HD
ATOM    235  H   A   B  48     -43.500 -23.607   5.041  0.00  0.00    +0.000 HD
ENDBRANCH 223 224
BRANCH 222 236
ATOM    236  O2' A   B  48     -44.558 -15.330   3.136  0.00  0.00    +0.000 OA
ATOM    237  H   A   B  48     -44.804 -14.992   2.261  0.00  0.00    +0.000 HD
ENDBRANCH 222 236
BRANCH 221 238
ATOM    238  O3' A   B  48     -41.921 -14.642   2.580  0.00  0.00    +0.000 OA
BRANCH 238 239
ATOM    239  P   U   B  49     -40.700 -14.499   3.620  0.00  0.00    +0.000 P 
ATOM    240  OP2 U   B  49     -39.730 -15.593   3.358  0.00  0.00    +0.000 OA
BRANCH 239 241
ATOM    241  OP1 U   B  49     -40.247 -13.087   3.591  0.00  0.00    +0.000 OA
ATOM    242  H   U   B  49     -39.826 -12.900   2.737  0.00  0.00    +0.000 HD
ENDBRANCH 239 241
BRANCH 239 243
ATOM    243  O5' U   B  49     -41.386 -14.776   5.033  0.00  0.00    +0.000 OA
BRANCH 243 244
ATOM    244  C5' U   B  49     -42.393 -13.914   5.546  0.00  0.00    +0.000 C 
BRANCH 244 245
ATOM    245  C4' U   B  49     -43.108 -14.532   6.722  0.00  0.00    +0.000 C 
ATOM    246  O4' U   B  49     -43.771 -15.757   6.304  0.00  0.00    +0.000 OA
ATOM    247  C3' U   B  49     -42.231 -14.969   7.874  0.00  0.00    +0.000 C 
ATOM    248  C2' U   B  49     -43.113 -15.996   8.570  0.00  0.00    +0.000 C 
ATOM    249  C1' U   B  49     -43.765 -16.688   7.368  0.00  0.00    +0.000 C 
BRANCH 249 250
ATOM    250  N1  U   B  49     -43.020 -17.894   6.943  0.00  0.00    +0.000 N 
ATOM    251  C2  U   B  49     -43.260 -19.069   7.635  0.00  0.00    +0.000 A 
ATOM    252  O2  U   B  49     -44.047 -19.143   8.564  0.00  0.00    +0.000 OA
ATOM    253  N3  U   B  49     -42.544 -20.163   7.200  0.00  0.00    +0.000 N 
ATOM    254  C4  U   B  49     -41.631 -20.199   6.165  0.00  0.00    +0.000 A 
ATOM    255  O4  U   B  49     -41.065 -21.258   5.890  0.00  0.00    +0.000 OA
ATOM    256  C5  U   B  49     -41.437 -18.949   5.503  0.00  0.00    +0.000 A 
ATOM    257  C6  U   B  49     -42.121 -17.866   5.904  0.00  0.00    +0.000 A 
ATOM    258  H   U   B  49     -42.700 -21.009   7.678  0.00  0.00    +0.000 HD
ENDBRANCH 249 250
BRANCH 248 259
ATOM    259  O2' U   B  49     -44.121 -15.385   9.350  0.00  0.00    +0.000 OA
ATOM    260  H   U   B  49     -44.648 -14.793   8.791  0.00  0.00    +0.000 HD
ENDBRANCH 248 259
BRANCH 247 261
ATOM    261  O3' U   B  49     -41.846 -13.893   8.715  0.00  0.00    +0.000 OA
BRANCH 261 262
ATOM    262  P   U   B  50     -40.399 -13.909   9.434  0.00  0.00    +0.000 P 
ATOM    263  OP2 U   B  50     -39.404 -14.417   8.457  0.00  0.00    +0.000 OA
BRANCH 262 264
ATOM    264  OP1 U   B  50     -40.191 -12.592  10.082  0.00  0.00    +0.000 OA
ATOM    265  H   U   B  50     -40.083 -11.910   9.401  0.00  0.00    +0.000 HD
ENDBRANCH 262 264
BRANCH 262 266
ATOM    266  O5' U   B  50     -40.573 -15.005  10.579  0.00  0.00    +0.000 OA
BRANCH 266 267
ATOM    267  C5' U   B  50     -41.468 -14.802  11.663  0.00  0.00    +0.000 C 
BRANCH 267 268
ATOM    268  C4' U   B  50     -41.685 -16.069  12.450  0.00  0.00    +0.000 C 
ATOM    269  O4' U   B  50     -42.253 -17.092  11.590  0.00  0.00    +0.000 OA
ATOM    270  C3' U   B  50     -40.443 -16.722  13.016  0.00  0.00    +0.000 C 
ATOM    271  C2' U   B  50     -40.917 -18.150  13.235  0.00  0.00    +0.000 C 
ATOM    272  C1' U   B  50     -41.790 -18.366  12.000  0.00  0.00    +0.000 C 
BRANCH 272 273
ATOM    273  N1  U   B  50     -41.034 -18.985  10.888  0.00  0.00    +0.000 N 
ATOM    274  C2  U   B  50     -40.852 -20.358  10.931  0.00  0.00    +0.000 A 
ATOM    275  O2  U   B  50     -41.282 -21.057  11.831  0.00  0.00    +0.000 OA
ATOM    276  N3  U   B  50     -40.142 -20.886   9.877  0.00  0.00    +0.000 N 
ATOM    277  C4  U   B  50     -39.607 -20.198   8.808  0.00  0.00    +0.000 A 
ATOM    278  O4  U   B  50     -38.991 -20.813   7.936  0.00  0.00    +0.000 OA
ATOM    279  C5  U   B  50     -39.837 -18.787   8.838  0.00  0.00    +0.000 A 
ATOM    280  C6  U   B  50     -40.526 -18.241   9.851  0.00  0.00    +0.000 A 
ATOM    281  H   U   B  50     -40.001 -21.860   9.887  0.00  0.00    +0.000 HD
ENDBRANCH 272 273
BRANCH 271 282
ATOM    282  O2' U   B  50     -41.722 -18.267  14.391  0.00  0.00    +0.000 OA
ATOM    283  H   U   B  50     -42.472 -17.656  14.326  0.00  0.00    +0.000 HD
ENDBRANCH 271 282
BRANCH 270 284
ATOM    284  O3' U   B  50     -39.972 -16.097  14.198  0.00  0.00    +0.000 OA
BRANCH 284 285
ATOM    285  P   U   B  51     -38.401 -16.093  14.542  0.00  0.00    +0.000 P 
ATOM    286  OP2 U   B  51     -37.658 -15.786  13.293  0.00  0.00    +0.000 OA
BRANCH 285 287
ATOM    287  OP1 U   B  51     -38.192 -15.259  15.751  0.00  0.00    +0.000 OA
ATOM    288  H   U   B  51     -38.365 -14.329  15.536  0.00  0.00    +0.000 HD
ENDBRANCH 285 287
BRANCH 285 289
ATOM    289  O5' U   B  51     -38.108 -17.612  14.933  0.00  0.00    +0.000 OA
BRANCH 289 290
ATOM    290  C5' U   B  51     -38.697 -18.204  16.082  0.00  0.00    +0.000 C 
BRANCH 290 291
ATOM    291  C4' U   B  51     -38.520 -19.704  16.088  0.00  0.00    +0.000 C 
ATOM    292  O4' U   B  51     -39.091 -20.273  14.881  0.00  0.00    +0.000 OA
ATOM    293  C3' U   B  51     -37.094 -20.209  16.087  0.00  0.00    +0.000 C 
ATOM    294  C2' U   B  51     -37.266 -21.626  15.557  0.00  0.00    +0.000 C 
ATOM    295  C1' U   B  51     -38.356 -21.423  14.505  0.00  0.00    +0.000 C 
BRANCH 295 296
ATOM    296  N1  U   B  51     -37.797 -21.219  13.151  0.00  0.00    +0.000 N 
ATOM    297  C2  U   B  51     -37.374 -22.346  12.460  0.00  0.00    +0.000 A 
ATOM    298  O2  U   B  51     -37.444 -23.471  12.923  0.00  0.00    +0.000 OA
ATOM    299  N3  U   B  51     -36.861 -22.107  11.206  0.00  0.00    +0.000 N 
ATOM    300  C4  U   B  51     -36.733 -20.885  10.582  0.00  0.00    +0.000 A 
ATOM    301  O4  U   B  51     -36.251 -20.830   9.449  0.00  0.00    +0.000 OA
ATOM    302  C5  U   B  51     -37.190 -19.772  11.357  0.00  0.00    +0.000 A 
ATOM    303  C6  U   B  51     -37.693 -19.971  12.584  0.00  0.00    +0.000 A 
ATOM    304  H   U   B  51     -36.552 -22.893  10.700  0.00  0.00    +0.000 HD
ENDBRANCH 295 296
BRANCH 294 305
ATOM    305  O2' U   B  51     -37.751 -22.503  16.555  0.00  0.00    +0.000 OA
ATOM    306  H   U   B  51     -38.584 -22.158  16.912  0.00  0.00    +0.000 HD
ENDBRANCH 294 305
BRANCH 293 307
ATOM    307  O3' U   B  51     -36.490 -20.156  17.369  0.00  0.00    +0.000 OA
BRANCH 307 308
ATOM    308  P   U   B  52     -34.904 -19.973  17.524  0.00  0.00    +0.000 P 
ATOM    309  OP2 U   B  52     -34.448 -19.009  16.491  0.00  0.00    +0.000 OA
BRANCH 308 310
ATOM    310  OP1 U   B  52     -34.600 -19.722  18.954  0.00  0.00    +0.000 OA
ATOM    311  H   U   B  52     -33.643 -19.609  19.066  0.00  0.00    +0.000 HD
ENDBRANCH 308 310
BRANCH 308 312
ATOM    312  O5' U   B  52     -34.343 -21.414  17.142  0.00  0.00    +0.000 OA
BRANCH 312 313
ATOM    313  C5' U   B  52     -34.654 -22.558  17.926  0.00  0.00    +0.000 C 
BRANCH 313 314
ATOM    314  C4' U   B  52     -34.246 -23.833  17.229  0.00  0.00    +0.000 C 
ATOM    315  O4' U   B  52     -34.947 -23.950  15.962  0.00  0.00    +0.000 OA
ATOM    316  C3' U   B  52     -32.786 -23.944  16.848  0.00  0.00    +0.000 C 
ATOM    317  C2' U   B  52     -32.830 -24.993  15.742  0.00  0.00    +0.000 C 
ATOM    318  C1' U   B  52     -34.124 -24.616  15.021  0.00  0.00    +0.000 C 
BRANCH 318 319
ATOM    319  N1  U   B  52     -33.887 -23.716  13.869  0.00  0.00    +0.000 N 
ATOM    320  C2  U   B  52     -33.446 -24.293  12.687  0.00  0.00    +0.000 A 
ATOM    321  O2  U   B  52     -33.248 -25.489  12.566  0.00  0.00    +0.000 OA
ATOM    322  N3  U   B  52     -33.243 -23.412  11.647  0.00  0.00    +0.000 N 
ATOM    323  C4  U   B  52     -33.431 -22.046  11.666  0.00  0.00    +0.000 A 
ATOM    324  O4  U   B  52     -33.204 -21.388  10.650  0.00  0.00    +0.000 OA
ATOM    325  C5  U   B  52     -33.885 -21.528  12.920  0.00  0.00    +0.000 A 
ATOM    326  C6  U   B  52     -34.092 -22.358  13.951  0.00  0.00    +0.000 A 
ATOM    327  H   U   B  52     -32.930 -23.800  10.798  0.00  0.00    +0.000 HD
ENDBRANCH 318 319
BRANCH 317 328
ATOM    328  O2' U   B  52     -32.960 -26.300  16.266  0.00  0.00    +0.000 OA
ATOM    329  H   U   B  52     -33.750 -26.346  16.827  0.00  0.00    +0.000 HD
ENDBRANCH 317 328
BRANCH 316 330
ATOM    330  O3' U   B  52     -31.961 -24.309  17.945  0.00  0.00    +0.000 OA
BRANCH 330 331
ATOM    331  P   A   B  53     -30.445 -23.797  18.033  0.00  0.00    +0.000 P 
ATOM    332  OP2 A   B  53     -30.389 -22.414  17.487  0.00  0.00    +0.000 OA
BRANCH 331 333
ATOM    333  OP1 A   B  53     -29.931 -24.074  19.396  0.00  0.00    +0.000 OA
ATOM    334  H   A   B  53     -29.013 -23.769  19.464  0.00  0.00    +0.000 HD
ENDBRANCH 331 333
BRANCH 331 335
ATOM    335  O5' A   B  53     -29.693 -24.762  17.010  0.00  0.00    +0.000 OA
BRANCH 335 336
ATOM    336  C5' A   B  53     -29.619 -26.164  17.250  0.00  0.00    +0.000 C 
BRANCH 336 337
ATOM    337  C4' A   B  53     -29.129 -26.902  16.026  0.00  0.00    +0.000 C 
ATOM    338  O4' A   B  53     -30.055 -26.699  14.928  0.00  0.00    +0.000 OA
ATOM    339  C3' A   B  53     -27.797 -26.446  15.467  0.00  0.00    +0.000 C 
ATOM    340  C2' A   B  53     -27.878 -26.933  14.028  0.00  0.00    +0.000 C 
ATOM    341  C1' A   B  53     -29.347 -26.674  13.703  0.00  0.00    +0.000 C 
BRANCH 341 342
ATOM    342  N9  A   B  53     -29.557 -25.362  13.070  0.00  0.00    +0.000 N 
ATOM    343  C8  A   B  53     -30.030 -24.206  13.639  0.00  0.00    +0.000 A 
ATOM    344  N7  A   B  53     -30.109 -23.197  12.803  0.00  0.00    +0.000 NA
ATOM    345  C5  A   B  53     -29.655 -23.723  11.599  0.00  0.00    +0.000 A 
ATOM    346  C6  A   B  53     -29.492 -23.166  10.321  0.00  0.00    +0.000 A 
ATOM    347  N1  A   B  53     -29.013 -23.960   9.343  0.00  0.00    +0.000 NA
ATOM    348  C2  A   B  53     -28.722 -25.234   9.633  0.00  0.00    +0.000 A 
ATOM    349  N3  A   B  53     -28.833 -25.877  10.796  0.00  0.00    +0.000 NA
ATOM    350  C4  A   B  53     -29.310 -25.054  11.751  0.00  0.00    +0.000 A 
BRANCH 346 351
ATOM    351  N6  A   B  53     -29.781 -21.888  10.029  0.00  0.00    +0.000 N 
ATOM    352  H   A   B  53     -29.647 -21.550   9.114  0.00  0.00    +0.000 HD
ATOM    353  H   A   B  53     -30.127 -21.289  10.730  0.00  0.00    +0.000 HD
ENDBRANCH 346 351
ENDBRANCH 341 342
BRANCH 340 354
ATOM    354  O2' A   B  53     -27.621 -28.324  13.932  0.00  0.00    +0.000 OA
ATOM    355  H   A   B  53     -28.239 -28.807  14.503  0.00  0.00    +0.000 HD
ENDBRANCH 340 354
BRANCH 339 356
ATOM    356  O3' A   B  53     -26.691 -26.981  16.184  0.00  0.00    +0.000 OA
BRANCH 356 357
ATOM    357  P   A   B  54     -25.323 -26.148  16.319  0.00  0.00    +0.000 P 
ATOM    358  OP2 A   B  54     -25.661 -24.708  16.472  0.00  0.00    +0.000 OA
BRANCH 357 359
ATOM    359  OP1 A   B  54     -24.470 -26.815  17.333  0.00  0.00    +0.000 OA
ATOM    360  H   A   B  54     -24.345 -27.745  17.089  0.00  0.00    +0.000 HD
ENDBRANCH 357 359
BRANCH 357 361
ATOM    361  O5' A   B  54     -24.646 -26.345  14.886  0.00  0.00    +0.000 OA
BRANCH 361 362
ATOM    362  C5' A   B  54     -24.247 -27.638  14.442  0.00  0.00    +0.000 C 
BRANCH 362 363
ATOM    363  C4' A   B  54     -23.938 -27.637  12.963  0.00  0.00    +0.000 C 
ATOM    364  O4' A   B  54     -25.118 -27.233  12.214  0.00  0.00    +0.000 OA
ATOM    365  C3' A   B  54     -22.869 -26.662  12.510  0.00  0.00    +0.000 C 
ATOM    366  C2' A   B  54     -23.200 -26.498  11.033  0.00  0.00    +0.000 C 
ATOM    367  C1' A   B  54     -24.729 -26.508  11.065  0.00  0.00    +0.000 C 
BRANCH 367 368
ATOM    368  N9  A   B  54     -25.290 -25.150  11.153  0.00  0.00    +0.000 N 
ATOM    369  C8  A   B  54     -25.792 -24.505  12.256  0.00  0.00    +0.000 A 
ATOM    370  N7  A   B  54     -26.225 -23.292  12.008  0.00  0.00    +0.000 NA
ATOM    371  C5  A   B  54     -25.994 -23.122  10.649  0.00  0.00    +0.000 A 
ATOM    372  C6  A   B  54     -26.231 -22.052   9.769  0.00  0.00    +0.000 A 
ATOM    373  N1  A   B  54     -25.879 -22.207   8.476  0.00  0.00    +0.000 NA
ATOM    374  C2  A   B  54     -25.329 -23.365   8.093  0.00  0.00    +0.000 A 
ATOM    375  N3  A   B  54     -25.057 -24.447   8.824  0.00  0.00    +0.000 NA
ATOM    376  C4  A   B  54     -25.417 -24.259  10.110  0.00  0.00    +0.000 A 
BRANCH 372 377
ATOM    377  N6  A   B  54     -26.778 -20.888  10.153  0.00  0.00    +0.000 N 
ATOM    378  H   A   B  54     -26.922 -20.171   9.494  0.00  0.00    +0.000 HD
ATOM    379  H   A   B  54     -27.035 -20.751  11.093  0.00  0.00    +0.000 HD
ENDBRANCH 372 377
ENDBRANCH 367 368
BRANCH 366 380
ATOM    380  O2' A   B  54     -22.746 -27.604  10.271  0.00  0.00    +0.000 OA
ATOM    381  H   A   B  54     -23.125 -28.421  10.630  0.00  0.00    +0.000 HD
ENDBRANCH 366 380
BRANCH 365 382
ATOM    382  O3' A   B  54     -21.552 -27.146  12.745  0.00  0.00    +0.000 OA
BRANCH 382 383
ATOM    383  P   A   B  55     -20.356 -26.122  13.067  0.00  0.00    +0.000 P 
ATOM    384  OP1 A   B  55     -19.186 -26.915  13.526  0.00  0.00    +0.000 OA
BRANCH 383 385
ATOM    385  OP2 A   B  55     -20.884 -25.022  13.917  0.00  0.00    +0.000 OA
ATOM    386  H   A   B  55     -21.643 -24.608  13.476  0.00  0.00    +0.000 HD
ENDBRANCH 383 385
BRANCH 383 387
ATOM    387  O5' A   B  55     -20.015 -25.516  11.628  0.00  0.00    +0.000 OA
BRANCH 387 388
ATOM    388  C5' A   B  55     -19.520 -26.353  10.585  0.00  0.00    +0.000 C 
BRANCH 388 389
ATOM    389  C4' A   B  55     -19.529 -25.629   9.259  0.00  0.00    +0.000 C 
ATOM    390  O4' A   B  55     -20.891 -25.259   8.907  0.00  0.00    +0.000 OA
ATOM    391  C3' A   B  55     -18.773 -24.314   9.221  0.00  0.00    +0.000 C 
ATOM    392  C2' A   B  55     -19.426 -23.610   8.038  0.00  0.00    +0.000 C 
ATOM    393  C1' A   B  55     -20.888 -24.027   8.214  0.00  0.00    +0.000 C 
BRANCH 393 394
ATOM    394  N9  A   B  55     -21.651 -23.045   8.999  0.00  0.00    +0.000 N 
ATOM    395  C8  A   B  55     -22.016 -23.111  10.320  0.00  0.00    +0.000 A 
ATOM    396  N7  A   B  55     -22.701 -22.070  10.732  0.00  0.00    +0.000 NA
ATOM    397  C5  A   B  55     -22.794 -21.261   9.607  0.00  0.00    +0.000 A 
ATOM    398  C6  A   B  55     -23.396 -20.014   9.382  0.00  0.00    +0.000 A 
ATOM    399  N6  A   B  55     -24.050 -19.328  10.334  0.00  0.00    +0.000 N 
ATOM    400  N1  A   B  55     -23.302 -19.484   8.146  0.00  0.00    +0.000 NA
ATOM    401  C2  A   B  55     -22.648 -20.165   7.199  0.00  0.00    +0.000 A 
ATOM    402  N3  A   B  55     -22.040 -21.347   7.287  0.00  0.00    +0.000 NA
ATOM    403  C4  A   B  55     -22.150 -21.850   8.533  0.00  0.00    +0.000 A 
ATOM    404  H   A   B  55     -24.455 -18.456  10.122  0.00  0.00    +0.000 HD
ATOM    405  H   A   B  55     -24.125 -19.697  11.244  0.00  0.00    +0.000 HD
ENDBRANCH 393 394
BRANCH 392 406
ATOM    406  O2' A   B  55     -18.946 -24.114   6.802  0.00  0.00    +0.000 OA
ATOM    407  H   A   B  55     -19.088 -25.073   6.767  0.00  0.00    +0.000 HD
ENDBRANCH 392 406
BRANCH 391 408
ATOM    408  O3' A   B  55     -17.370 -24.494   9.070  0.00  0.00    +0.000 OA
BRANCH 408 409
ATOM    409  P   A   B  56     -16.353 -23.476   9.773  0.00  0.00    +0.000 P 
ATOM    410  OP1 A   B  56     -14.983 -24.029   9.624  0.00  0.00    +0.000 OA
BRANCH 409 411
ATOM    411  OP2 A   B  56     -16.870 -23.138  11.124  0.00  0.00    +0.000 OA
ATOM    412  H   A   B  56     -17.773 -22.791  11.047  0.00  0.00    +0.000 HD
ENDBRANCH 409 411
BRANCH 409 413
ATOM    413  O5' A   B  56     -16.469 -22.173   8.856  0.00  0.00    +0.000 OA
BRANCH 413 414
ATOM    414  C5' A   B  56     -16.074 -22.210   7.492  0.00  0.00    +0.000 C 
BRANCH 414 415
ATOM    415  C4' A   B  56     -16.528 -20.967   6.761  0.00  0.00    +0.000 C 
ATOM    416  O4' A   B  56     -17.977 -20.856   6.824  0.00  0.00    +0.000 OA
ATOM    417  C3' A   B  56     -16.040 -19.648   7.331  0.00  0.00    +0.000 C 
ATOM    418  C2' A   B  56     -17.068 -18.665   6.777  0.00  0.00    +0.000 C 
ATOM    419  C1' A   B  56     -18.353 -19.493   6.862  0.00  0.00    +0.000 C 
BRANCH 419 420
ATOM    420  N9  A   B  56     -19.097 -19.238   8.105  0.00  0.00    +0.000 N 
ATOM    421  C8  A   B  56     -19.136 -19.998   9.247  0.00  0.00    +0.000 A 
ATOM    422  N7  A   B  56     -19.900 -19.497  10.189  0.00  0.00    +0.000 NA
ATOM    423  C5  A   B  56     -20.400 -18.328   9.632  0.00  0.00    +0.000 A 
ATOM    424  C6  A   B  56     -21.270 -17.341  10.118  0.00  0.00    +0.000 A 
ATOM    425  N6  A   B  56     -21.815 -17.376  11.346  0.00  0.00    +0.000 N 
ATOM    426  N1  A   B  56     -21.560 -16.303   9.307  0.00  0.00    +0.000 NA
ATOM    427  C2  A   B  56     -21.015 -16.265   8.087  0.00  0.00    +0.000 A 
ATOM    428  N3  A   B  56     -20.182 -17.134   7.513  0.00  0.00    +0.000 NA
ATOM    429  C4  A   B  56     -19.911 -18.155   8.350  0.00  0.00    +0.000 A 
ATOM    430  H   A   B  56     -22.420 -16.656  11.637  0.00  0.00    +0.000 HD
ATOM    431  H   A   B  56     -21.609 -18.122  11.955  0.00  0.00    +0.000 HD
ENDBRANCH 419 420
BRANCH 418 432
ATOM    432  O2' A   B  56     -16.809 -18.351   5.418  0.00  0.00    +0.000 OA
ATOM    433  H   A   B  56     -16.784 -19.168   4.896  0.00  0.00    +0.000 HD
ENDBRANCH 418 432
BRANCH 417 434
ATOM    434  O3' A   B  56     -14.706 -19.349   6.943  0.00  0.00    +0.000 OA
BRANCH 434 435
ATOM    435  P   A   B  57     -13.744 -18.516   7.917  0.00  0.00    +0.000 P 
ATOM    436  OP1 A   B  57     -12.364 -18.589   7.377  0.00  0.00    +0.000 OA
BRANCH 435 437
ATOM    437  OP2 A   B  57     -14.005 -18.928   9.322  0.00  0.00    +0.000 OA
ATOM    438  H   A   B  57     -13.689 -19.835   9.457  0.00  0.00    +0.000 HD
ENDBRANCH 435 437
BRANCH 435 439
ATOM    439  O5' A   B  57     -14.278 -17.019   7.736  0.00  0.00    +0.000 OA
BRANCH 439 440
ATOM    440  C5' A   B  57     -14.186 -16.363   6.484  0.00  0.00    +0.000 C 
BRANCH 440 441
ATOM    441  C4' A   B  57     -14.941 -15.051   6.504  0.00  0.00    +0.000 C 
ATOM    442  O4' A   B  57     -16.344 -15.302   6.787  0.00  0.00    +0.000 OA
ATOM    443  C3' A   B  57     -14.514 -14.064   7.571  0.00  0.00    +0.000 C 
ATOM    444  C2' A   B  57     -15.764 -13.198   7.737  0.00  0.00    +0.000 C 
ATOM    445  C1' A   B  57     -16.888 -14.226   7.528  0.00  0.00    +0.000 C 
BRANCH 445 446
ATOM    446  N9  A   B  57     -17.427 -14.745   8.793  0.00  0.00    +0.000 N 
ATOM    447  C8  A   B  57     -17.037 -15.858   9.484  0.00  0.00    +0.000 A 
ATOM    448  N7  A   B  57     -17.720 -16.062  10.587  0.00  0.00    +0.000 NA
ATOM    449  C5  A   B  57     -18.624 -15.006  10.622  0.00  0.00    +0.000 A 
ATOM    450  C6  A   B  57     -19.632 -14.648  11.535  0.00  0.00    +0.000 A 
ATOM    451  N6  A   B  57     -19.903 -15.347  12.648  0.00  0.00    +0.000 N 
ATOM    452  N1  A   B  57     -20.351 -13.538  11.274  0.00  0.00    +0.000 NA
ATOM    453  C2  A   B  57     -20.079 -12.838  10.169  0.00  0.00    +0.000 A 
ATOM    454  N3  A   B  57     -19.158 -13.075   9.233  0.00  0.00    +0.000 NA
ATOM    455  C4  A   B  57     -18.455 -14.187   9.524  0.00  0.00    +0.000 A 
ATOM    456  H   A   B  57     -19.389 -16.160  12.856  0.00  0.00    +0.000 HD
ATOM    457  H   A   B  57     -20.616 -15.046  13.257  0.00  0.00    +0.000 HD
ENDBRANCH 445 446
BRANCH 444 458
ATOM    458  O2' A   B  57     -15.847 -12.203   6.726  0.00  0.00    +0.000 OA
ATOM    459  H   A   B  57     -15.826 -12.626   5.853  0.00  0.00    +0.000 HD
ENDBRANCH 444 458
BRANCH 443 460
ATOM    460  O3' A   B  57     -13.367 -13.316   7.183  0.00  0.00    +0.000 OA
BRANCH 460 461
ATOM    461  P   C   B  58     -11.968 -13.617   7.844  0.00  0.00    +0.000 P 
ATOM    462  OP1 C   B  58     -11.236 -14.571   6.948  0.00  0.00    +0.000 OA
BRANCH 461 463
ATOM    463  OP2 C   B  58     -12.191 -13.973   9.265  0.00  0.00    +0.000 OA
ATOM    464  H   C   B  58     -12.658 -14.822   9.316  0.00  0.00    +0.000 HD
ENDBRANCH 461 463
BRANCH 461 465
ATOM    465  O5' C   B  58     -11.194 -12.209   7.782  0.00  0.00    +0.000 OA
BRANCH 465 466
ATOM    466  C5' C   B  58     -11.511 -11.167   8.686  0.00  0.00    +0.000 C 
BRANCH 466 467
ATOM    467  C4' C   B  58     -11.491  -9.806   8.029  0.00  0.00    +0.000 C 
ATOM    468  O4' C   B  58     -10.129  -9.317   7.908  0.00  0.00    +0.000 OA
ATOM    469  C3' C   B  58     -12.083  -9.742   6.616  0.00  0.00    +0.000 C 
ATOM    470  C2' C   B  58     -10.841  -9.744   5.732  0.00  0.00    +0.000 C 
ATOM    471  C1' C   B  58      -9.885  -8.908   6.575  0.00  0.00    +0.000 C 
BRANCH 471 472
ATOM    472  N1  C   B  58      -8.452  -9.057   6.257  0.00  0.00    +0.000 N 
ATOM    473  C2  C   B  58      -7.887  -8.269   5.251  0.00  0.00    +0.000 A 
ATOM    474  O2  C   B  58      -8.612  -7.473   4.631  0.00  0.00    +0.000 OA
ATOM    475  N3  C   B  58      -6.563  -8.398   4.962  0.00  0.00    +0.000 NA
ATOM    476  C4  C   B  58      -5.817  -9.262   5.651  0.00  0.00    +0.000 A 
ATOM    477  N4  C   B  58      -4.522  -9.349   5.333  0.00  0.00    +0.000 N 
ATOM    478  C5  C   B  58      -6.365 -10.074   6.685  0.00  0.00    +0.000 A 
ATOM    479  C6  C   B  58      -7.671  -9.936   6.961  0.00  0.00    +0.000 A 
ATOM    480  H   C   B  58      -4.152  -8.784   4.617  0.00  0.00    +0.000 HD
ATOM    481  H   C   B  58      -3.938  -9.978   5.815  0.00  0.00    +0.000 HD
ENDBRANCH 471 472
BRANCH 470 482
ATOM    482  O2' C   B  58     -11.031  -9.190   4.453  0.00  0.00    +0.000 OA
ATOM    483  H   C   B  58     -11.344  -8.276   4.540  0.00  0.00    +0.000 HD
ENDBRANCH 470 482
BRANCH 469 484
ATOM    484  O3' C   B  58     -12.762  -8.501   6.445  0.00  0.00    +0.000 OA
BRANCH 484 485
ATOM    485  P   A   B  59     -14.335  -8.410   6.394  0.00  0.00    +0.000 P 
ATOM    486  OP1 A   B  59     -14.759  -9.032   5.108  0.00  0.00    +0.000 OA
BRANCH 485 487
ATOM    487  OP2 A   B  59     -14.680  -6.990   6.670  0.00  0.00    +0.000 OA
ATOM    488  H   A   B  59     -14.346  -6.431   5.951  0.00  0.00    +0.000 HD
ENDBRANCH 485 487
BRANCH 485 489
ATOM    489  O5' A   B  59     -14.893  -9.292   7.584  0.00  0.00    +0.000 OA
BRANCH 489 490
ATOM    490  C5' A   B  59     -14.622  -8.982   8.945  0.00  0.00    +0.000 C 
BRANCH 490 491
ATOM    491  C4' A   B  59     -15.806  -8.300   9.593  0.00  0.00    +0.000 C 
ATOM    492  O4' A   B  59     -16.978  -9.153   9.512  0.00  0.00    +0.000 OA
ATOM    493  C3' A   B  59     -15.655  -8.010  11.081  0.00  0.00    +0.000 C 
ATOM    494  C2' A   B  59     -17.106  -7.938  11.541  0.00  0.00    +0.000 C 
ATOM    495  C1' A   B  59     -17.745  -9.040  10.695  0.00  0.00    +0.000 C 
BRANCH 495 496
ATOM    496  N9  A   B  59     -17.735 -10.348  11.377  0.00  0.00    +0.000 N 
ATOM    497  C8  A   B  59     -17.040 -11.476  11.023  0.00  0.00    +0.000 A 
ATOM    498  N7  A   B  59     -17.240 -12.498  11.827  0.00  0.00    +0.000 NA
ATOM    499  C5  A   B  59     -18.125 -12.008  12.776  0.00  0.00    +0.000 A 
ATOM    500  C6  A   B  59     -18.727 -12.599  13.898  0.00  0.00    +0.000 A 
ATOM    501  N6  A   B  59     -18.511 -13.871  14.269  0.00  0.00    +0.000 N 
ATOM    502  N1  A   B  59     -19.564 -11.837  14.635  0.00  0.00    +0.000 NA
ATOM    503  C2  A   B  59     -19.776 -10.565  14.260  0.00  0.00    +0.000 A 
ATOM    504  N3  A   B  59     -19.266  -9.897  13.224  0.00  0.00    +0.000 NA
ATOM    505  C4  A   B  59     -18.440 -10.687  12.511  0.00  0.00    +0.000 A 
ATOM    506  H   A   B  59     -17.904 -14.441  13.743  0.00  0.00    +0.000 HD
ATOM    507  H   A   B  59     -18.960 -14.234  15.067  0.00  0.00    +0.000 HD
ENDBRANCH 495 496
BRANCH 494 508
ATOM    508  O2' A   B  59     -17.702  -6.692  11.211  0.00  0.00    +0.000 OA
ATOM    509  H   A   B  59     -17.629  -6.542  10.255  0.00  0.00    +0.000 HD
ENDBRANCH 494 508
BRANCH 493 510
ATOM    510  O3' A   B  59     -14.930  -6.806  11.315  0.00  0.00    +0.000 OA
BRANCH 510 511
ATOM    511  P   G   B  60     -13.852  -6.718  12.502  0.00  0.00    +0.000 P 
ATOM    512  OP1 G   B  60     -13.083  -5.459  12.344  0.00  0.00    +0.000 OA
BRANCH 511 513
ATOM    513  OP2 G   B  60     -13.134  -8.012  12.565  0.00  0.00    +0.000 OA
ATOM    514  H   G   B  60     -12.574  -8.109  11.779  0.00  0.00    +0.000 HD
ENDBRANCH 511 513
BRANCH 511 515
ATOM    515  O5' G   B  60     -14.763  -6.587  13.805  0.00  0.00    +0.000 OA
BRANCH 515 516
ATOM    516  C5' G   B  60     -15.572  -5.439  14.009  0.00  0.00    +0.000 C 
BRANCH 516 517
ATOM    517  C4' G   B  60     -16.457  -5.589  15.223  0.00  0.00    +0.000 C 
ATOM    518  O4' G   B  60     -17.401  -6.668  15.015  0.00  0.00    +0.000 OA
ATOM    519  C3' G   B  60     -15.762  -5.958  16.516  0.00  0.00    +0.000 C 
ATOM    520  C2' G   B  60     -16.910  -6.535  17.333  0.00  0.00    +0.000 C 
ATOM    521  C1' G   B  60     -17.715  -7.266  16.255  0.00  0.00    +0.000 C 
BRANCH 521 522
ATOM    522  N9  G   B  60     -17.384  -8.697  16.197  0.00  0.00    +0.000 N 
ATOM    523  C8  G   B  60     -16.524  -9.332  15.341  0.00  0.00    +0.000 A 
ATOM    524  N7  G   B  60     -16.447 -10.618  15.558  0.00  0.00    +0.000 NA
ATOM    525  C5  G   B  60     -17.310 -10.845  16.622  0.00  0.00    +0.000 A 
ATOM    526  C6  G   B  60     -17.645 -12.043  17.298  0.00  0.00    +0.000 A 
ATOM    527  O6  G   B  60     -17.227 -13.193  17.086  0.00  0.00    +0.000 OA
ATOM    528  N1  G   B  60     -18.561 -11.815  18.315  0.00  0.00    +0.000 NA
ATOM    529  C2  G   B  60     -19.091 -10.591  18.642  0.00  0.00    +0.000 A 
ATOM    530  N2  G   B  60     -19.969 -10.566  19.659  0.00  0.00    +0.000 N 
ATOM    531  N3  G   B  60     -18.787  -9.468  18.018  0.00  0.00    +0.000 N 
ATOM    532  C4  G   B  60     -17.895  -9.669  17.024  0.00  0.00    +0.000 A 
ATOM    533  H   G   B  60     -20.379  -9.714  19.935  0.00  0.00    +0.000 HD
ATOM    534  H   G   B  60     -20.202 -11.399  20.129  0.00  0.00    +0.000 HD
ATOM    535  H   G   B  60     -19.165  -8.589  18.250  0.00  0.00    +0.000 HD
ENDBRANCH 521 522
BRANCH 520 536
ATOM    536  O2' G   B  60     -17.713  -5.516  17.905  0.00  0.00    +0.000 OA
ATOM    537  H   G   B  60     -18.042  -4.932  17.204  0.00  0.00    +0.000 HD
ENDBRANCH 520 536
BRANCH 519 538
ATOM    538  O3' G   B  60     -15.137  -4.846  17.141  0.00  0.00    +0.000 OA
BRANCH 538 539
ATOM    539  P   A   B  61     -13.935  -5.080  18.176  0.00  0.00    +0.000 P 
ATOM    540  OP1 A   B  61     -13.655  -6.532  18.309  0.00  0.00    +0.000 OA
BRANCH 539 541
ATOM    541  OP2 A   B  61     -14.232  -4.278  19.385  0.00  0.00    +0.000 OA
ATOM    542  H   A   B  61     -14.391  -3.356  19.130  0.00  0.00    +0.000 HD
ENDBRANCH 539 541
BRANCH 539 543
ATOM    543  O5' A   B  61     -12.700  -4.403  17.437  0.00  0.00    +0.000 OA
BRANCH 543 544
ATOM    544  C5' A   B  61     -12.143  -4.999  16.277  0.00  0.00    +0.000 C 
BRANCH 544 545
ATOM    545  C4' A   B  61     -11.919  -3.976  15.193  0.00  0.00    +0.000 C 
ATOM    546  O4' A   B  61     -13.202  -3.522  14.675  0.00  0.00    +0.000 OA
ATOM    547  C3' A   B  61     -11.230  -2.696  15.620  0.00  0.00    +0.000 C 
ATOM    548  C2' A   B  61     -11.667  -1.723  14.533  0.00  0.00    +0.000 C 
ATOM    549  C1' A   B  61     -13.118  -2.157  14.323  0.00  0.00    +0.000 C 
BRANCH 549 550
ATOM    550  N9  A   B  61     -14.046  -1.390  15.168  0.00  0.00    +0.000 N 
ATOM    551  C8  A   B  61     -14.695  -1.816  16.299  0.00  0.00    +0.000 A 
ATOM    552  N7  A   B  61     -15.458  -0.900  16.849  0.00  0.00    +0.000 NA
ATOM    553  C5  A   B  61     -15.296   0.208  16.023  0.00  0.00    +0.000 A 
ATOM    554  C6  A   B  61     -15.837   1.504  16.063  0.00  0.00    +0.000 A 
ATOM    555  N6  A   B  61     -16.683   1.924  17.010  0.00  0.00    +0.000 N 
ATOM    556  N1  A   B  61     -15.471   2.365  15.090  0.00  0.00    +0.000 NA
ATOM    557  C2  A   B  61     -14.618   1.943  14.145  0.00  0.00    +0.000 A 
ATOM    558  N3  A   B  61     -14.041   0.752  14.001  0.00  0.00    +0.000 NA
ATOM    559  C4  A   B  61     -14.427  -0.082  14.986  0.00  0.00    +0.000 A 
ATOM    560  H   A   B  61     -17.030   2.845  16.987  0.00  0.00    +0.000 HD
ATOM    561  H   A   B  61     -16.958   1.312  17.730  0.00  0.00    +0.000 HD
ENDBRANCH 549 550
BRANCH 548 562
ATOM    562  O2' A   B  61     -10.940  -1.920  13.336  0.00  0.00    +0.000 OA
ATOM    563  H   A   B  61     -11.034  -2.842  13.049  0.00  0.00    +0.000 HD
ENDBRANCH 548 562
BRANCH 547 564
ATOM    564  O3' A   B  61      -9.824  -2.822  15.737  0.00  0.00    +0.000 OA
BRANCH 564 565
ATOM    565  P   C   B  62      -9.027  -2.063  16.908  0.00  0.00    +0.000 P 
ATOM    566  OP1 C   B  62      -7.674  -2.667  17.030  0.00  0.00    +0.000 OA
BRANCH 565 567
ATOM    567  OP2 C   B  62      -9.908  -1.992  18.095  0.00  0.00    +0.000 OA
ATOM    568  H   C   B  62     -10.748  -1.574  17.850  0.00  0.00    +0.000 HD
ENDBRANCH 565 567
BRANCH 565 569
ATOM    569  O5' C   B  62      -8.860  -0.593  16.321  0.00  0.00    +0.000 OA
BRANCH 569 570
ATOM    570  C5' C   B  62      -8.280  -0.372  15.043  0.00  0.00    +0.000 C 
BRANCH 570 571
ATOM    571  C4' C   B  62      -8.679   0.968  14.493  0.00  0.00    +0.000 C 
ATOM    572  O4' C   B  62     -10.124   1.041  14.366  0.00  0.00    +0.000 OA
ATOM    573  C3' C   B  62      -8.327   2.156  15.357  0.00  0.00    +0.000 C 
ATOM    574  C2' C   B  62      -9.324   3.212  14.881  0.00  0.00    +0.000 C 
ATOM    575  C1' C   B  62     -10.567   2.356  14.622  0.00  0.00    +0.000 C 
BRANCH 575 576
ATOM    576  N1  C   B  62     -11.496   2.330  15.778  0.00  0.00    +0.000 N 
ATOM    577  C2  C   B  62     -12.366   3.410  15.973  0.00  0.00    +0.000 A 
ATOM    578  O2  C   B  62     -12.333   4.361  15.177  0.00  0.00    +0.000 OA
ATOM    579  N3  C   B  62     -13.223   3.390  17.025  0.00  0.00    +0.000 NA
ATOM    580  C4  C   B  62     -13.233   2.350  17.863  0.00  0.00    +0.000 A 
ATOM    581  N4  C   B  62     -14.095   2.377  18.887  0.00  0.00    +0.000 N 
ATOM    582  C5  C   B  62     -12.359   1.240  17.689  0.00  0.00    +0.000 A 
ATOM    583  C6  C   B  62     -11.518   1.268  16.646  0.00  0.00    +0.000 A 
ATOM    584  H   C   B  62     -14.697   3.147  19.003  0.00  0.00    +0.000 HD
ATOM    585  H   C   B  62     -14.126   1.627  19.524  0.00  0.00    +0.000 HD
ENDBRANCH 575 576
BRANCH 574 586
ATOM    586  O2' C   B  62      -8.912   3.806  13.667  0.00  0.00    +0.000 OA
ATOM    587  H   C   B  62      -8.781   3.116  12.998  0.00  0.00    +0.000 HD
ENDBRANCH 574 586
BRANCH 573 588
ATOM    588  O3' C   B  62      -6.974   2.553  15.203  0.00  0.00    +0.000 OA
BRANCH 588 589
ATOM    589  P   U   B  63      -6.144   3.050  16.443  0.00  0.00    +0.000 P 
ATOM    590  OP1 U   B  63      -4.713   3.044  16.075  0.00  0.00    +0.000 OA
BRANCH 589 591
ATOM    591  OP2 U   B  63      -6.591   2.309  17.641  0.00  0.00    +0.000 OA
ATOM    592  H   U   B  63      -6.314   1.382  17.570  0.00  0.00    +0.000 HD
ENDBRANCH 589 591
BRANCH 589 593
ATOM    593  O5' U   B  63      -6.611   4.575  16.581  0.00  0.00    +0.000 OA
BRANCH 593 594
ATOM    594  C5' U   B  63      -6.605   5.452  15.463  0.00  0.00    +0.000 C 
BRANCH 594 595
ATOM    595  C4' U   B  63      -7.602   6.565  15.652  0.00  0.00    +0.000 C 
ATOM    596  O4' U   B  63      -8.850   5.991  16.106  0.00  0.00    +0.000 OA
ATOM    597  C3' U   B  63      -7.197   7.618  16.669  0.00  0.00    +0.000 C 
ATOM    598  C2' U   B  63      -8.317   7.677  17.706  0.00  0.00    +0.000 C 
ATOM    599  C1' U   B  63      -9.418   6.783  17.130  0.00  0.00    +0.000 C 
BRANCH 599 600
ATOM    600  N1  U   B  63     -10.018   5.881  18.134  0.00  0.00    +0.000 N 
ATOM    601  C2  U   B  63     -11.214   6.253  18.724  0.00  0.00    +0.000 A 
ATOM    602  O2  U   B  63     -11.784   7.298  18.445  0.00  0.00    +0.000 OA
ATOM    603  N3  U   B  63     -11.712   5.370  19.648  0.00  0.00    +0.000 N 
ATOM    604  C4  U   B  63     -11.152   4.170  20.035  0.00  0.00    +0.000 A 
ATOM    605  O4  U   B  63     -11.723   3.482  20.874  0.00  0.00    +0.000 OA
ATOM    606  C5  U   B  63      -9.917   3.854  19.388  0.00  0.00    +0.000 A 
ATOM    607  C6  U   B  63      -9.404   4.702  18.484  0.00  0.00    +0.000 A 
ATOM    608  H   U   B  63     -12.560   5.619  20.082  0.00  0.00    +0.000 HD
ENDBRANCH 599 600
BRANCH 598 609
ATOM    609  O2' U   B  63      -8.834   8.994  17.938  0.00  0.00    +0.000 OA
ATOM    610  H   U   B  63      -9.191   9.351  17.110  0.00  0.00    +0.000 HD
ENDBRANCH 598 609
BRANCH 597 611
ATOM    611  O3' U   B  63      -6.953   8.885  16.076  0.00  0.00    +0.000 OA
BRANCH 611 612
ATOM    612  P   A   B  64      -6.993   9.174  14.577  0.00  0.00    +0.000 P 
ATOM    613  OP2 A   B  64      -6.053   8.240  13.904  0.00  0.00    +0.000 OA
BRANCH 612 614
ATOM    614  OP1 A   B  64      -8.399   9.260  14.098  0.00  0.00    +0.000 OA
ATOM    615  H   A   B  64      -8.405   9.444  13.146  0.00  0.00    +0.000 HD
ENDBRANCH 612 614
BRANCH 612 616
ATOM    616  O5' A   B  64      -6.378  10.643  14.538  0.00  0.00    +0.000 OA
BRANCH 616 617
ATOM    617  C5' A   B  64      -6.427  11.473  15.703  0.00  0.00    +0.000 C 
BRANCH 617 618
ATOM    618  C4' A   B  64      -5.045  11.940  16.063  0.00  0.00    +0.000 C 
ATOM    619  O4' A   B  64      -4.487  11.091  17.094  0.00  0.00    +0.000 OA
ATOM    620  C3' A   B  64      -4.025  11.866  14.943  0.00  0.00    +0.000 C 
ATOM    621  C2' A   B  64      -2.707  11.802  15.694  0.00  0.00    +0.000 C 
ATOM    622  C1' A   B  64      -3.088  10.960  16.915  0.00  0.00    +0.000 C 
BRANCH 622 623
ATOM    623  N9  A   B  64      -2.767   9.534  16.761  0.00  0.00    +0.000 N 
ATOM    624  C8  A   B  64      -3.653   8.499  16.648  0.00  0.00    +0.000 A 
ATOM    625  N7  A   B  64      -3.082   7.325  16.529  0.00  0.00    +0.000 NA
ATOM    626  C5  A   B  64      -1.721   7.608  16.566  0.00  0.00    +0.000 A 
ATOM    627  C6  A   B  64      -0.580   6.789  16.487  0.00  0.00    +0.000 A 
ATOM    628  N1  A   B  64       0.620   7.389  16.555  0.00  0.00    +0.000 NA
ATOM    629  C2  A   B  64       0.666   8.721  16.698  0.00  0.00    +0.000 A 
ATOM    630  N3  A   B  64      -0.331   9.592  16.783  0.00  0.00    +0.000 NA
ATOM    631  C4  A   B  64      -1.515   8.966  16.711  0.00  0.00    +0.000 A 
BRANCH 627 632
ATOM    632  N6  A   B  64      -0.632   5.457  16.347  0.00  0.00    +0.000 N 
ATOM    633  H   A   B  64       0.201   4.934  16.297  0.00  0.00    +0.000 HD
ATOM    634  H   A   B  64      -1.503   5.001  16.294  0.00  0.00    +0.000 HD
ENDBRANCH 627 632
ENDBRANCH 622 623
BRANCH 621 635
ATOM    635  O2' A   B  64      -2.287  13.083  16.106  0.00  0.00    +0.000 OA
ATOM    636  H   A   B  64      -2.982  13.493  16.645  0.00  0.00    +0.000 HD
ENDBRANCH 621 635
BRANCH 620 637
ATOM    637  O3' A   B  64      -4.131  12.967  14.056  0.00  0.00    +0.000 OA
BRANCH 637 638
ATOM    638  P   C   B  65      -4.234  12.736  12.507  0.00  0.00    +0.000 P 
ATOM    639  OP1 C   B  65      -4.880  13.930  11.896  0.00  0.00    +0.000 OA
BRANCH 638 640
ATOM    640  OP2 C   B  65      -4.804  11.393  12.257  0.00  0.00    +0.000 OA
ATOM    641  H   C   B  65      -4.871  11.243  11.301  0.00  0.00    +0.000 HD
ENDBRANCH 638 640
BRANCH 638 642
ATOM    642  O5' C   B  65      -2.711  12.733  12.094  0.00  0.00    +0.000 OA
BRANCH 642 643
ATOM    643  C5' C   B  65      -2.020  11.524  11.977  0.00  0.00    +0.000 C 
BRANCH 643 644
ATOM    644  C4' C   B  65      -0.563  11.666  12.300  0.00  0.00    +0.000 C 
ATOM    645  O4' C   B  65      -0.272  10.907  13.493  0.00  0.00    +0.000 OA
ATOM    646  C3' C   B  65       0.357  11.113  11.232  0.00  0.00    +0.000 C 
ATOM    647  C2' C   B  65       1.542  10.596  12.032  0.00  0.00    +0.000 C 
ATOM    648  C1' C   B  65       0.855  10.097  13.298  0.00  0.00    +0.000 C 
BRANCH 648 649
ATOM    649  N1  C   B  65       0.399   8.696  13.202  0.00  0.00    +0.000 N 
ATOM    650  C2  C   B  65       1.331   7.652  13.258  0.00  0.00    +0.000 A 
ATOM    651  O2  C   B  65       2.538   7.926  13.378  0.00  0.00    +0.000 OA
ATOM    652  N3  C   B  65       0.901   6.370  13.177  0.00  0.00    +0.000 NA
ATOM    653  C4  C   B  65      -0.405   6.104  13.048  0.00  0.00    +0.000 A 
ATOM    654  N4  C   B  65      -0.781   4.824  12.973  0.00  0.00    +0.000 N 
ATOM    655  C5  C   B  65      -1.376   7.143  12.991  0.00  0.00    +0.000 A 
ATOM    656  C6  C   B  65      -0.939   8.407  13.071  0.00  0.00    +0.000 A 
ATOM    657  H   C   B  65      -1.734   4.596  12.878  0.00  0.00    +0.000 HD
ATOM    658  H   C   B  65      -0.105   4.109  13.013  0.00  0.00    +0.000 HD
ENDBRANCH 648 649
BRANCH 647 659
ATOM    659  O2' C   B  65       2.446  11.641  12.365  0.00  0.00    +0.000 OA
ATOM    660  H   C   B  65       1.972  12.337  12.847  0.00  0.00    +0.000 HD
ENDBRANCH 647 659
BRANCH 646 661
ATOM    661  O3' C   B  65       0.703  12.103  10.276  0.00  0.00    +0.000 OA
BRANCH 661 662
ATOM    662  P   A   B  66      -0.160  12.308   8.985  0.00  0.00    +0.000 P 
ATOM    663  OP2 A   B  66      -0.748  11.023   8.551  0.00  0.00    +0.000 OA
BRANCH 662 664
ATOM    664  OP1 A   B  66      -1.049  13.480   9.198  0.00  0.00    +0.000 OA
ATOM    665  H   A   B  66      -1.592  13.622   8.407  0.00  0.00    +0.000 HD
ENDBRANCH 662 664
BRANCH 662 666
ATOM    666  O5' A   B  66       0.952  12.735   7.929  0.00  0.00    +0.000 OA
BRANCH 666 667
ATOM    667  C5' A   B  66       2.120  13.413   8.361  0.00  0.00    +0.000 C 
BRANCH 667 668
ATOM    668  C4' A   B  66       3.334  12.547   8.171  0.00  0.00    +0.000 C 
ATOM    669  O4' A   B  66       3.320  11.466   9.128  0.00  0.00    +0.000 OA
ATOM    670  C3' A   B  66       3.422  11.848   6.835  0.00  0.00    +0.000 C 
ATOM    671  C2' A   B  66       4.349  10.684   7.157  0.00  0.00    +0.000 C 
ATOM    672  C1' A   B  66       3.865  10.295   8.551  0.00  0.00    +0.000 C 
BRANCH 672 673
ATOM    673  N9  A   B  66       2.809   9.265   8.486  0.00  0.00    +0.000 N 
ATOM    674  C8  A   B  66       1.611   9.339   7.818  0.00  0.00    +0.000 A 
ATOM    675  N7  A   B  66       0.876   8.264   7.940  0.00  0.00    +0.000 NA
ATOM    676  C5  A   B  66       1.643   7.423   8.734  0.00  0.00    +0.000 A 
ATOM    677  C6  A   B  66       1.420   6.123   9.230  0.00  0.00    +0.000 A 
ATOM    678  N6  A   B  66       0.318   5.419   8.970  0.00  0.00    +0.000 N 
ATOM    679  N1  A   B  66       2.381   5.578   9.999  0.00  0.00    +0.000 NA
ATOM    680  C2  A   B  66       3.487   6.286  10.248  0.00  0.00    +0.000 A 
ATOM    681  N3  A   B  66       3.812   7.513   9.843  0.00  0.00    +0.000 NA
ATOM    682  C4  A   B  66       2.835   8.034   9.078  0.00  0.00    +0.000 A 
ATOM    683  H   A   B  66      -0.392   5.806   8.409  0.00  0.00    +0.000 HD
ATOM    684  H   A   B  66       0.215   4.512   9.339  0.00  0.00    +0.000 HD
ENDBRANCH 672 673
BRANCH 671 685
ATOM    685  O2' A   B  66       5.698  11.094   7.234  0.00  0.00    +0.000 OA
ATOM    686  H   A   B  66       5.784  11.803   7.891  0.00  0.00    +0.000 HD
ENDBRANCH 671 685
BRANCH 670 687
ATOM    687  O3' A   B  66       3.876  12.680   5.785  0.00  0.00    +0.000 OA
BRANCH 687 688
ATOM    688  P   A   B  67       2.895  13.004   4.597  0.00  0.00    +0.000 P 
ATOM    689  OP2 A   B  67       1.881  11.928   4.503  0.00  0.00    +0.000 OA
BRANCH 688 690
ATOM    690  OP1 A   B  67       2.448  14.419   4.706  0.00  0.00    +0.000 OA
ATOM    691  H   A   B  67       1.843  14.624   3.976  0.00  0.00    +0.000 HD
ENDBRANCH 688 690
BRANCH 688 692
ATOM    692  O5' A   B  67       3.863  12.884   3.338  0.00  0.00    +0.000 OA
BRANCH 692 693
ATOM    693  C5' A   B  67       5.114  13.553   3.334  0.00  0.00    +0.000 C 
BRANCH 693 694
ATOM    694  C4' A   B  67       6.241  12.583   3.087  0.00  0.00    +0.000 C 
ATOM    695  O4' A   B  67       6.346  11.657   4.196  0.00  0.00    +0.000 OA
ATOM    696  C3' A   B  67       6.086  11.677   1.890  0.00  0.00    +0.000 C 
ATOM    697  C2' A   B  67       7.046  10.547   2.234  0.00  0.00    +0.000 C 
ATOM    698  C1' A   B  67       6.820  10.408   3.734  0.00  0.00    +0.000 C 
BRANCH 698 699
ATOM    699  N9  A   B  67       5.823   9.374   4.058  0.00  0.00    +0.000 N 
ATOM    700  C8  A   B  67       4.463   9.505   4.126  0.00  0.00    +0.000 A 
ATOM    701  N7  A   B  67       3.844   8.394   4.440  0.00  0.00    +0.000 NA
ATOM    702  C5  A   B  67       4.867   7.468   4.583  0.00  0.00    +0.000 A 
ATOM    703  C6  A   B  67       4.870   6.099   4.913  0.00  0.00    +0.000 A 
ATOM    704  N6  A   B  67       3.762   5.395   5.161  0.00  0.00    +0.000 N 
ATOM    705  N1  A   B  67       6.065   5.480   4.974  0.00  0.00    +0.000 NA
ATOM    706  C2  A   B  67       7.173   6.185   4.720  0.00  0.00    +0.000 A 
ATOM    707  N3  A   B  67       7.298   7.472   4.401  0.00  0.00    +0.000 NA
ATOM    708  C4  A   B  67       6.090   8.063   4.349  0.00  0.00    +0.000 A 
ATOM    709  H   A   B  67       2.881   5.833   5.120  0.00  0.00    +0.000 HD
ATOM    710  H   A   B  67       3.826   4.438   5.384  0.00  0.00    +0.000 HD
ENDBRANCH 698 699
BRANCH 697 711
ATOM    711  O2' A   B  67       8.390  10.914   1.996  0.00  0.00    +0.000 OA
ATOM    712  H   A   B  67       8.599  11.718   2.496  0.00  0.00    +0.000 HD
ENDBRANCH 697 711
BRANCH 696 713
ATOM    713  O3' A   B  67       6.378  12.318   0.669  0.00  0.00    +0.000 OA
BRANCH 713 714
ATOM    714  P   A   B  68       5.546  11.971  -0.622  0.00  0.00    +0.000 P 
ATOM    715  OP1 A   B  68       5.880  12.978  -1.654  0.00  0.00    +0.000 OA
BRANCH 714 716
ATOM    716  OP2 A   B  68       4.130  11.766  -0.224  0.00  0.00    +0.000 OA
ATOM    717  H   A   B  68       3.602  11.551  -1.008  0.00  0.00    +0.000 HD
ENDBRANCH 714 716
BRANCH 714 718
ATOM    718  O5' A   B  68       6.143  10.569  -1.081  0.00  0.00    +0.000 OA
BRANCH 718 719
ATOM    719  C5' A   B  68       7.511  10.434  -1.426  0.00  0.00    +0.000 C 
BRANCH 719 720
ATOM    720  C4' A   B  68       7.943   8.994  -1.383  0.00  0.00    +0.000 C 
ATOM    721  O4' A   B  68       7.703   8.460  -0.060  0.00  0.00    +0.000 OA
ATOM    722  C3' A   B  68       7.192   8.053  -2.300  0.00  0.00    +0.000 C 
ATOM    723  C2' A   B  68       7.388   6.710  -1.614  0.00  0.00    +0.000 C 
ATOM    724  C1' A   B  68       7.305   7.106  -0.147  0.00  0.00    +0.000 C 
BRANCH 724 725
ATOM    725  N9  A   B  68       5.945   6.984   0.395  0.00  0.00    +0.000 N 
ATOM    726  C8  A   B  68       5.018   7.979   0.571  0.00  0.00    +0.000 A 
ATOM    727  N7  A   B  68       3.885   7.564   1.080  0.00  0.00    +0.000 NA
ATOM    728  C5  A   B  68       4.079   6.199   1.250  0.00  0.00    +0.000 A 
ATOM    729  C6  A   B  68       3.248   5.182   1.753  0.00  0.00    +0.000 A 
ATOM    730  N6  A   B  68       2.000   5.391   2.191  0.00  0.00    +0.000 N 
ATOM    731  N1  A   B  68       3.750   3.931   1.787  0.00  0.00    +0.000 NA
ATOM    732  C2  A   B  68       4.999   3.723   1.347  0.00  0.00    +0.000 A 
ATOM    733  N3  A   B  68       5.873   4.595   0.855  0.00  0.00    +0.000 NA
ATOM    734  C4  A   B  68       5.342   5.831   0.833  0.00  0.00    +0.000 A 
ATOM    735  H   A   B  68       1.618   6.298   2.173  0.00  0.00    +0.000 HD
ATOM    736  H   A   B  68       1.465   4.638   2.531  0.00  0.00    +0.000 HD
ENDBRANCH 724 725
BRANCH 723 737
ATOM    737  O2' A   B  68       8.664   6.165  -1.882  0.00  0.00    +0.000 OA
ATOM    738  H   A   B  68       9.349   6.798  -1.614  0.00  0.00    +0.000 HD
ENDBRANCH 723 737
BRANCH 722 739
ATOM    739  O3' A   B  68       7.686   8.078  -3.627  0.00  0.00    +0.000 OA
BRANCH 739 740
ATOM    740  P   A   B  69       6.710   8.107  -4.864  0.00  0.00    +0.000 P 
ATOM    741  OP1 A   B  69       7.524   8.349  -6.074  0.00  0.00    +0.000 OA
BRANCH 740 742
ATOM    742  OP2 A   B  69       5.590   9.031  -4.531  0.00  0.00    +0.000 OA
ATOM    743  H   A   B  69       4.970   9.070  -5.276  0.00  0.00    +0.000 HD
ENDBRANCH 740 742
BRANCH 740 744
ATOM    744  O5' A   B  69       6.116   6.624  -4.939  0.00  0.00    +0.000 OA
BRANCH 744 745
ATOM    745  C5' A   B  69       6.953   5.513  -5.211  0.00  0.00    +0.000 C 
BRANCH 745 746
ATOM    746  C4' A   B  69       6.294   4.229  -4.775  0.00  0.00    +0.000 C 
ATOM    747  O4' A   B  69       5.852   4.379  -3.413  0.00  0.00    +0.000 OA
ATOM    748  C3' A   B  69       5.054   3.834  -5.552  0.00  0.00    +0.000 C 
ATOM    749  C2' A   B  69       4.209   3.082  -4.539  0.00  0.00    +0.000 C 
ATOM    750  C1' A   B  69       4.637   3.694  -3.209  0.00  0.00    +0.000 C 
BRANCH 750 751
ATOM    751  N9  A   B  69       3.654   4.625  -2.657  0.00  0.00    +0.000 N 
ATOM    752  C8  A   B  69       3.629   5.993  -2.749  0.00  0.00    +0.000 A 
ATOM    753  N7  A   B  69       2.620   6.551  -2.129  0.00  0.00    +0.000 NA
ATOM    754  C5  A   B  69       1.933   5.470  -1.587  0.00  0.00    +0.000 A 
ATOM    755  C6  A   B  69       0.766   5.388  -0.809  0.00  0.00    +0.000 A 
ATOM    756  N6  A   B  69       0.050   6.456  -0.425  0.00  0.00    +0.000 N 
ATOM    757  N1  A   B  69       0.359   4.157  -0.433  0.00  0.00    +0.000 NA
ATOM    758  C2  A   B  69       1.076   3.091  -0.814  0.00  0.00    +0.000 A 
ATOM    759  N3  A   B  69       2.180   3.044  -1.543  0.00  0.00    +0.000 NA
ATOM    760  C4  A   B  69       2.561   4.282  -1.902  0.00  0.00    +0.000 A 
ATOM    761  H   A   B  69       0.334   7.360  -0.691  0.00  0.00    +0.000 HD
ATOM    762  H   A   B  69      -0.759   6.335   0.123  0.00  0.00    +0.000 HD
ENDBRANCH 750 751
BRANCH 749 763
ATOM    763  O2' A   B  69       4.502   1.701  -4.529  0.00  0.00    +0.000 OA
ATOM    764  H   A   B  69       5.445   1.572  -4.340  0.00  0.00    +0.000 HD
ENDBRANCH 749 763
BRANCH 748 765
ATOM    765  O3' A   B  69       5.377   2.995  -6.648  0.00  0.00    +0.000 OA
BRANCH 765 766
ATOM    766  P   A   B  70       5.735   3.453  -8.046  0.00  0.00    +0.000 P 
ATOM    767  OP1 A   B  70       6.993   2.770  -8.427  0.00  0.00    +0.000 OA
BRANCH 766 768
ATOM    768  OP2 A   B  70       5.662   4.928  -8.071  0.00  0.00    +0.000 OA
ATOM    769  H   A   B  70       5.888   5.248  -8.958  0.00  0.00    +0.000 HD
ENDBRANCH 766 768
BRANCH 766 770
ATOM    770  O5' A   B  70       4.571   2.858  -8.965  0.00  0.00    +0.000 OA
BRANCH 770 771
ATOM    771  C5' A   B  70       3.472   3.642  -9.349  0.00  0.00    +0.000 C 
BRANCH 771 772
ATOM    772  C4' A   B  70       3.061   3.356 -10.775  0.00  0.00    +0.000 C 
ATOM    773  O4' A   B  70       4.210   3.529 -11.641  0.00  0.00    +0.000 OA
ATOM    774  C3' A   B  70       2.535   1.947 -11.029  0.00  0.00    +0.000 C 
ATOM    775  C2' A   B  70       3.704   1.249 -11.724  0.00  0.00    +0.000 C 
ATOM    776  C1' A   B  70       4.365   2.397 -12.468  0.00  0.00    +0.000 C 
BRANCH 776 777
ATOM    777  N9  A   B  70       5.796   2.153 -12.705  0.00  0.00    +0.000 N 
ATOM    778  C8  A   B  70       6.771   1.937 -11.766  0.00  0.00    +0.000 A 
ATOM    779  N7  A   B  70       7.965   1.743 -12.281  0.00  0.00    +0.000 NA
ATOM    780  C5  A   B  70       7.756   1.836 -13.647  0.00  0.00    +0.000 A 
ATOM    781  C6  A   B  70       8.622   1.720 -14.744  0.00  0.00    +0.000 A 
ATOM    782  N1  A   B  70       8.093   1.861 -15.977  0.00  0.00    +0.000 NA
ATOM    783  C2  A   B  70       6.781   2.106 -16.092  0.00  0.00    +0.000 A 
ATOM    784  N3  A   B  70       5.864   2.239 -15.138  0.00  0.00    +0.000 NA
ATOM    785  C4  A   B  70       6.426   2.087 -13.929  0.00  0.00    +0.000 A 
BRANCH 781 786
ATOM    786  N6  A   B  70       9.935   1.478 -14.622  0.00  0.00    +0.000 N 
ATOM    787  H   A   B  70      10.499   1.406 -15.426  0.00  0.00    +0.000 HD
ATOM    788  H   A   B  70      10.335   1.373 -13.729  0.00  0.00    +0.000 HD
ENDBRANCH 781 786
ENDBRANCH 776 777
BRANCH 775 789
ATOM    789  O2' A   B  70       3.328   0.232 -12.640  0.00  0.00    +0.000 OA
ATOM    790  H   A   B  70       2.758   0.611 -13.327  0.00  0.00    +0.000 HD
ENDBRANCH 775 789
BRANCH 774 791
ATOM    791  O3' A   B  70       1.404   2.005 -11.893  0.00  0.00    +0.000 OA
BRANCH 791 792
ATOM    792  P   U   B  71       0.145   1.026 -11.656  0.00  0.00    +0.000 P 
ATOM    793  OP1 U   B  71      -0.234   0.416 -12.957  0.00  0.00    +0.000 OA
BRANCH 792 794
ATOM    794  OP2 U   B  71      -0.892   1.765 -10.888  0.00  0.00    +0.000 OA
ATOM    795  H   U   B  71      -1.258   2.474 -11.439  0.00  0.00    +0.000 HD
ENDBRANCH 792 794
BRANCH 792 796
ATOM    796  O5' U   B  71       0.709  -0.120 -10.708  0.00  0.00    +0.000 OA
BRANCH 796 797
ATOM    797  C5' U   B  71       0.778  -1.474 -11.100  0.00  0.00    +0.000 C 
BRANCH 797 798
ATOM    798  C4' U   B  71       2.104  -2.082 -10.728  0.00  0.00    +0.000 C 
ATOM    799  O4' U   B  71       2.525  -1.549  -9.441  0.00  0.00    +0.000 OA
ATOM    800  C3' U   B  71       2.095  -3.598 -10.584  0.00  0.00    +0.000 C 
ATOM    801  C2' U   B  71       1.972  -3.788  -9.074  0.00  0.00    +0.000 C 
ATOM    802  C1' U   B  71       2.773  -2.608  -8.540  0.00  0.00    +0.000 C 
BRANCH 802 803
ATOM    803  N1  U   B  71       2.389  -2.189  -7.182  0.00  0.00    +0.000 N 
ATOM    804  C2  U   B  71       3.395  -2.049  -6.234  0.00  0.00    +0.000 A 
ATOM    805  O2  U   B  71       4.570  -2.252  -6.492  0.00  0.00    +0.000 OA
ATOM    806  N3  U   B  71       2.976  -1.659  -4.992  0.00  0.00    +0.000 N 
ATOM    807  C4  U   B  71       1.679  -1.400  -4.598  0.00  0.00    +0.000 A 
ATOM    808  O4  U   B  71       1.456  -1.058  -3.439  0.00  0.00    +0.000 OA
ATOM    809  C5  U   B  71       0.695  -1.574  -5.626  0.00  0.00    +0.000 A 
ATOM    810  C6  U   B  71       1.068  -1.949  -6.850  0.00  0.00    +0.000 A 
ATOM    811  H   U   B  71       3.674  -1.552  -4.306  0.00  0.00    +0.000 HD
ENDBRANCH 802 803
BRANCH 801 812
ATOM    812  O2' U   B  71       2.487  -5.003  -8.587  0.00  0.00    +0.000 OA
ATOM    813  H   U   B  71       3.427  -5.071  -8.816  0.00  0.00    +0.000 HD
ENDBRANCH 801 812
BRANCH 800 814
ATOM    814  O3' U   B  71       3.330  -4.128 -11.047  0.00  0.00    +0.000 OA
BRANCH 814 815
ATOM    815  P   C   B  72       3.317  -5.340 -12.046  0.00  0.00    +0.000 P 
ATOM    816  OP1 C   B  72       3.899  -4.852 -13.318  0.00  0.00    +0.000 OA
BRANCH 815 817
ATOM    817  OP2 C   B  72       1.971  -5.949 -12.035  0.00  0.00    +0.000 OA
ATOM    818  H   C   B  72       1.951  -6.700 -12.649  0.00  0.00    +0.000 HD
ENDBRANCH 815 817
BRANCH 815 819
ATOM    819  O5' C   B  72       4.339  -6.383 -11.405  0.00  0.00    +0.000 OA
BRANCH 819 820
ATOM    820  C5' C   B  72       5.130  -6.041 -10.292  0.00  0.00    +0.000 C 
BRANCH 820 821
ATOM    821  C4' C   B  72       6.077  -7.141  -9.906  0.00  0.00    +0.000 C 
ATOM    822  O4' C   B  72       6.647  -6.837  -8.608  0.00  0.00    +0.000 OA
ATOM    823  C3' C   B  72       5.442  -8.509  -9.733  0.00  0.00    +0.000 C 
ATOM    824  C2' C   B  72       6.387  -9.188  -8.750  0.00  0.00    +0.000 C 
ATOM    825  C1' C   B  72       6.802  -8.021  -7.856  0.00  0.00    +0.000 C 
BRANCH 825 826
ATOM    826  N1  C   B  72       6.002  -7.896  -6.618  0.00  0.00    +0.000 N 
ATOM    827  C2  C   B  72       6.245  -8.776  -5.553  0.00  0.00    +0.000 A 
ATOM    828  O2  C   B  72       7.109  -9.648  -5.686  0.00  0.00    +0.000 OA
ATOM    829  N3  C   B  72       5.527  -8.657  -4.410  0.00  0.00    +0.000 NA
ATOM    830  C4  C   B  72       4.594  -7.705  -4.299  0.00  0.00    +0.000 A 
ATOM    831  N4  C   B  72       3.915  -7.631  -3.148  0.00  0.00    +0.000 N 
ATOM    832  C5  C   B  72       4.330  -6.790  -5.361  0.00  0.00    +0.000 A 
ATOM    833  C6  C   B  72       5.047  -6.916  -6.488  0.00  0.00    +0.000 A 
ATOM    834  H   C   B  72       3.221  -6.943  -3.029  0.00  0.00    +0.000 HD
ATOM    835  H   C   B  72       4.110  -8.264  -2.420  0.00  0.00    +0.000 HD
ENDBRANCH 825 826
BRANCH 824 836
ATOM    836  O2' C   B  72       7.522  -9.711  -9.402  0.00  0.00    +0.000 OA
ATOM    837  H   C   B  72       7.971  -9.002  -9.888  0.00  0.00    +0.000 HD
ENDBRANCH 824 836
BRANCH 823 838
ATOM    838  O3' C   B  72       5.341  -9.212 -10.973  0.00  0.00    +0.000 OA
BRANCH 838 839
ATOM    839  P   U   B  73       4.069 -10.128 -11.305  0.00  0.00    +0.000 P 
ATOM    840  OP1 U   B  73       4.220 -10.639 -12.689  0.00  0.00    +0.000 OA
BRANCH 839 841
ATOM    841  OP2 U   B  73       2.837  -9.396 -10.921  0.00  0.00    +0.000 OA
ATOM    842  H   U   B  73       2.707  -8.645 -11.521  0.00  0.00    +0.000 HD
ENDBRANCH 839 841
BRANCH 839 843
ATOM    843  O5' U   B  73       4.249 -11.351 -10.302  0.00  0.00    +0.000 OA
BRANCH 843 844
ATOM    844  C5' U   B  73       5.346 -12.242 -10.420  0.00  0.00    +0.000 C 
BRANCH 844 845
ATOM    845  C4' U   B  73       5.440 -13.152  -9.226  0.00  0.00    +0.000 C 
ATOM    846  O4' U   B  73       5.635 -12.367  -8.021  0.00  0.00    +0.000 OA
ATOM    847  C3' U   B  73       4.213 -13.983  -8.933  0.00  0.00    +0.000 C 
ATOM    848  C2' U   B  73       4.386 -14.301  -7.449  0.00  0.00    +0.000 C 
ATOM    849  C1' U   B  73       4.995 -12.999  -6.926  0.00  0.00    +0.000 C 
BRANCH 849 850
ATOM    850  N1  U   B  73       3.982 -12.080  -6.364  0.00  0.00    +0.000 N 
ATOM    851  C2  U   B  73       3.534 -12.318  -5.070  0.00  0.00    +0.000 A 
ATOM    852  O2  U   B  73       3.937 -13.248  -4.398  0.00  0.00    +0.000 OA
ATOM    853  N3  U   B  73       2.594 -11.432  -4.600  0.00  0.00    +0.000 N 
ATOM    854  C4  U   B  73       2.068 -10.348  -5.271  0.00  0.00    +0.000 A 
ATOM    855  O4  U   B  73       1.230  -9.640  -4.713  0.00  0.00    +0.000 OA
ATOM    856  C5  U   B  73       2.581 -10.162  -6.595  0.00  0.00    +0.000 A 
ATOM    857  C6  U   B  73       3.497 -11.011  -7.082  0.00  0.00    +0.000 A 
ATOM    858  H   U   B  73       2.261 -11.588  -3.687  0.00  0.00    +0.000 HD
ENDBRANCH 849 850
BRANCH 848 859
ATOM    859  O2' U   B  73       5.298 -15.358  -7.246  0.00  0.00    +0.000 OA
ATOM    860  H   U   B  73       6.147 -15.136  -7.659  0.00  0.00    +0.000 HD
ENDBRANCH 848 859
BRANCH 847 861
ATOM    861  O3' U   B  73       4.120 -15.137  -9.755  0.00  0.00    +0.000 OA
BRANCH 861 862
ATOM    862  P   C   B  74       2.679 -15.716 -10.189  0.00  0.00    +0.000 P 
ATOM    863  OP1 C   B  74       2.904 -16.714 -11.262  0.00  0.00    +0.000 OA
BRANCH 862 864
ATOM    864  OP2 C   B  74       1.759 -14.575 -10.421  0.00  0.00    +0.000 OA
ATOM    865  H   C   B  74       2.042 -14.087 -11.210  0.00  0.00    +0.000 HD
ENDBRANCH 862 864
BRANCH 862 866
ATOM    866  O5' C   B  74       2.184 -16.495  -8.886  0.00  0.00    +0.000 OA
BRANCH 866 867
ATOM    867  C5' C   B  74       2.907 -17.611  -8.386  0.00  0.00    +0.000 C 
BRANCH 867 868
ATOM    868  C4' C   B  74       2.439 -17.994  -7.007  0.00  0.00    +0.000 C 
ATOM    869  O4' C   B  74       2.603 -16.874  -6.097  0.00  0.00    +0.000 OA
ATOM    870  C3' C   B  74       0.981 -18.364  -6.877  0.00  0.00    +0.000 C 
ATOM    871  C2' C   B  74       0.725 -18.144  -5.387  0.00  0.00    +0.000 C 
ATOM    872  C1' C   B  74       1.598 -16.919  -5.102  0.00  0.00    +0.000 C 
BRANCH 872 873
ATOM    873  N1  C   B  74       0.835 -15.651  -5.123  0.00  0.00    +0.000 N 
ATOM    874  C2  C   B  74       0.139 -15.263  -3.967  0.00  0.00    +0.000 A 
ATOM    875  O2  C   B  74       0.184 -15.997  -2.971  0.00  0.00    +0.000 OA
ATOM    876  N3  C   B  74      -0.566 -14.106  -3.967  0.00  0.00    +0.000 NA
ATOM    877  C4  C   B  74      -0.589 -13.338  -5.062  0.00  0.00    +0.000 A 
ATOM    878  N4  C   B  74      -1.296 -12.205  -5.011  0.00  0.00    +0.000 N 
ATOM    879  C5  C   B  74       0.112 -13.707  -6.248  0.00  0.00    +0.000 A 
ATOM    880  C6  C   B  74       0.805 -14.855  -6.237  0.00  0.00    +0.000 A 
ATOM    881  H   C   B  74      -1.336 -11.614  -5.797  0.00  0.00    +0.000 HD
ATOM    882  H   C   B  74      -1.776 -11.961  -4.187  0.00  0.00    +0.000 HD
ENDBRANCH 872 873
BRANCH 871 883
ATOM    883  O2' C   B  74       1.187 -19.234  -4.614  0.00  0.00    +0.000 OA
ATOM    884  H   C   B  74       2.129 -19.380  -4.791  0.00  0.00    +0.000 HD
ENDBRANCH 871 883
BRANCH 870 885
ATOM    885  O3' C   B  74       0.710 -19.694  -7.305  0.00  0.00    +0.000 OA
BRANCH 885 886
ATOM    886  P   C   B  75      -0.628 -20.065  -8.107  0.00  0.00    +0.000 P 
ATOM    887  OP2 C   B  75      -1.004 -18.891  -8.933  0.00  0.00    +0.000 OA
BRANCH 886 888
ATOM    888  OP1 C   B  75      -0.419 -21.382  -8.758  0.00  0.00    +0.000 OA
ATOM    889  H   C   B  75       0.246 -21.294  -9.459  0.00  0.00    +0.000 HD
ENDBRANCH 886 888
BRANCH 886 890
ATOM    890  O5' C   B  75      -1.729 -20.243  -6.958  0.00  0.00    +0.000 OA
BRANCH 890 891
ATOM    891  C5' C   B  75      -1.738 -21.393  -6.127  0.00  0.00    +0.000 C 
BRANCH 891 892
ATOM    892  C4' C   B  75      -2.575 -21.171  -4.889  0.00  0.00    +0.000 C 
ATOM    893  O4' C   B  75      -2.217 -19.903  -4.275  0.00  0.00    +0.000 OA
ATOM    894  C3' C   B  75      -4.071 -21.071  -5.100  0.00  0.00    +0.000 C 
ATOM    895  C2' C   B  75      -4.527 -20.292  -3.867  0.00  0.00    +0.000 C 
ATOM    896  C1' C   B  75      -3.347 -19.342  -3.638  0.00  0.00    +0.000 C 
BRANCH 896 897
ATOM    897  N1  C   B  75      -3.582 -17.983  -4.169  0.00  0.00    +0.000 N 
ATOM    898  C2  C   B  75      -4.332 -17.078  -3.405  0.00  0.00    +0.000 A 
ATOM    899  O2  C   B  75      -4.780 -17.450  -2.311  0.00  0.00    +0.000 OA
ATOM    900  N3  C   B  75      -4.555 -15.828  -3.875  0.00  0.00    +0.000 NA
ATOM    901  C4  C   B  75      -4.053 -15.462  -5.060  0.00  0.00    +0.000 A 
ATOM    902  N4  C   B  75      -4.296 -14.218  -5.482  0.00  0.00    +0.000 N 
ATOM    903  C5  C   B  75      -3.282 -16.361  -5.858  0.00  0.00    +0.000 A 
ATOM    904  C6  C   B  75      -3.071 -17.596  -5.381  0.00  0.00    +0.000 A 
ATOM    905  H   C   B  75      -3.942 -13.914  -6.349  0.00  0.00    +0.000 HD
ATOM    906  H   C   B  75      -4.829 -13.605  -4.926  0.00  0.00    +0.000 HD
ENDBRANCH 896 897
BRANCH 895 907
ATOM    907  O2' C   B  75      -4.669 -21.140  -2.743  0.00  0.00    +0.000 OA
ATOM    908  H   C   B  75      -3.832 -21.601  -2.578  0.00  0.00    +0.000 HD
ENDBRANCH 895 907
BRANCH 894 909
ATOM    909  O3' C   B  75      -4.694 -22.350  -5.202  0.00  0.00    +0.000 OA
BRANCH 909 910
ATOM    910  P   A   B  76      -5.705 -22.710  -6.349  0.00  0.00    +0.000 P 
ATOM    911  OP2 A   B  76      -5.030 -22.420  -7.639  0.00  0.00    +0.000 OA
BRANCH 910 912
ATOM    912  OP1 A   B  76      -6.249 -24.077  -6.096  0.00  0.00    +0.000 OA
ATOM    913  H   A   B  76      -6.875 -24.311  -6.799  0.00  0.00    +0.000 HD
ENDBRANCH 910 912
BRANCH 910 914
ATOM    914  O5' A   B  76      -6.910 -21.660  -6.157  0.00  0.00    +0.000 OA
BRANCH 914 915
ATOM    915  C5' A   B  76      -7.855 -21.783  -5.095  0.00  0.00    +0.000 C 
BRANCH 915 916
ATOM    916  C4' A   B  76      -8.830 -20.628  -5.104  0.00  0.00    +0.000 C 
ATOM    917  O4' A   B  76      -8.082 -19.388  -5.188  0.00  0.00    +0.000 OA
ATOM    918  C3' A   B  76      -9.792 -20.588  -6.278  0.00  0.00    +0.000 C 
ATOM    919  C2' A   B  76     -10.070 -19.099  -6.434  0.00  0.00    +0.000 C 
ATOM    920  C1' A   B  76      -8.724 -18.481  -6.049  0.00  0.00    +0.000 C 
BRANCH 920 921
ATOM    921  N9  A   B  76      -7.847 -18.255  -7.207  0.00  0.00    +0.000 N 
ATOM    922  C8  A   B  76      -7.326 -19.187  -8.071  0.00  0.00    +0.000 A 
ATOM    923  N7  A   B  76      -6.559 -18.670  -8.997  0.00  0.00    +0.000 NA
ATOM    924  C5  A   B  76      -6.570 -17.307  -8.724  0.00  0.00    +0.000 A 
ATOM    925  C6  A   B  76      -5.945 -16.207  -9.342  0.00  0.00    +0.000 A 
ATOM    926  N1  A   B  76      -6.163 -14.983  -8.817  0.00  0.00    +0.000 NA
ATOM    927  C2  A   B  76      -6.954 -14.874  -7.750  0.00  0.00    +0.000 A 
ATOM    928  N3  A   B  76      -7.598 -15.830  -7.078  0.00  0.00    +0.000 NA
ATOM    929  C4  A   B  76      -7.360 -17.038  -7.628  0.00  0.00    +0.000 A 
BRANCH 925 930
ATOM    930  N6  A   B  76      -5.151 -16.319 -10.418  0.00  0.00    +0.000 N 
ATOM    931  H   A   B  76      -4.738 -15.516 -10.811  0.00  0.00    +0.000 HD
ATOM    932  H   A   B  76      -4.981 -17.204 -10.814  0.00  0.00    +0.000 HD
ENDBRANCH 925 930
ENDBRANCH 920 921
BRANCH 918 933
ATOM    933  O3' A   B  76     -10.962 -21.353  -6.071  0.00  0.00    +0.000 OA
ATOM    934  H   A   B  76     -11.422 -21.033  -5.279  0.00  0.00    +0.000 HD
ENDBRANCH 918 933
BRANCH 919 935
ATOM    935  O2' A   B  76     -11.057 -18.664  -5.525  0.00  0.00    +0.000 OA
ATOM    936  H   A   B  76     -10.780 -18.878  -4.620  0.00  0.00    +0.000 HD
ENDBRANCH 919 935
ENDBRANCH 915 916
ENDBRANCH 914 915
ENDBRANCH 910 914
ENDBRANCH 909 910
ENDBRANCH 894 909
ENDBRANCH 891 892
ENDBRANCH 890 891
ENDBRANCH 886 890
ENDBRANCH 885 886
ENDBRANCH 870 885
ENDBRANCH 867 868
ENDBRANCH 866 867
ENDBRANCH 862 866
ENDBRANCH 861 862
ENDBRANCH 847 861
ENDBRANCH 844 845
ENDBRANCH 843 844
ENDBRANCH 839 843
ENDBRANCH 838 839
ENDBRANCH 823 838
ENDBRANCH 820 821
ENDBRANCH 819 820
ENDBRANCH 815 819
ENDBRANCH 814 815
ENDBRANCH 800 814
ENDBRANCH 797 798
ENDBRANCH 796 797
ENDBRANCH 792 796
ENDBRANCH 791 792
ENDBRANCH 774 791
ENDBRANCH 771 772
ENDBRANCH 770 771
ENDBRANCH 766 770
ENDBRANCH 765 766
ENDBRANCH 748 765
ENDBRANCH 745 746
ENDBRANCH 744 745
ENDBRANCH 740 744
ENDBRANCH 739 740
ENDBRANCH 722 739
ENDBRANCH 719 720
ENDBRANCH 718 719
ENDBRANCH 714 718
ENDBRANCH 713 714
ENDBRANCH 696 713
ENDBRANCH 693 694
ENDBRANCH 692 693
ENDBRANCH 688 692
ENDBRANCH 687 688
ENDBRANCH 670 687
ENDBRANCH 667 668
ENDBRANCH 666 667
ENDBRANCH 662 666
ENDBRANCH 661 662
ENDBRANCH 646 661
ENDBRANCH 643 644
ENDBRANCH 642 643
ENDBRANCH 638 642
ENDBRANCH 637 638
ENDBRANCH 620 637
ENDBRANCH 617 618
ENDBRANCH 616 617
ENDBRANCH 612 616
ENDBRANCH 611 612
ENDBRANCH 597 611
ENDBRANCH 594 595
ENDBRANCH 593 594
ENDBRANCH 589 593
ENDBRANCH 588 589
ENDBRANCH 573 588
ENDBRANCH 570 571
ENDBRANCH 569 570
ENDBRANCH 565 569
ENDBRANCH 564 565
ENDBRANCH 547 564
ENDBRANCH 544 545
ENDBRANCH 543 544
ENDBRANCH 539 543
ENDBRANCH 538 539
ENDBRANCH 519 538
ENDBRANCH 516 517
ENDBRANCH 515 516
ENDBRANCH 511 515
ENDBRANCH 510 511
ENDBRANCH 493 510
ENDBRANCH 490 491
ENDBRANCH 489 490
ENDBRANCH 485 489
ENDBRANCH 484 485
ENDBRANCH 469 484
ENDBRANCH 466 467
ENDBRANCH 465 466
ENDBRANCH 461 465
ENDBRANCH 460 461
ENDBRANCH 443 460
ENDBRANCH 440 441
ENDBRANCH 439 440
ENDBRANCH 435 439
ENDBRANCH 434 435
ENDBRANCH 417 434
ENDBRANCH 414 415
ENDBRANCH 413 414
ENDBRANCH 409 413
ENDBRANCH 408 409
ENDBRANCH 391 408
ENDBRANCH 388 389
ENDBRANCH 387 388
ENDBRANCH 383 387
ENDBRANCH 382 383
ENDBRANCH 365 382
ENDBRANCH 362 363
ENDBRANCH 361 362
ENDBRANCH 357 361
ENDBRANCH 356 357
ENDBRANCH 339 356
ENDBRANCH 336 337
ENDBRANCH 335 336
ENDBRANCH 331 335
ENDBRANCH 330 331
ENDBRANCH 316 330
ENDBRANCH 313 314
ENDBRANCH 312 313
ENDBRANCH 308 312
ENDBRANCH 307 308
ENDBRANCH 293 307
ENDBRANCH 290 291
ENDBRANCH 289 290
ENDBRANCH 285 289
ENDBRANCH 284 285
ENDBRANCH 270 284
ENDBRANCH 267 268
ENDBRANCH 266 267
ENDBRANCH 262 266
ENDBRANCH 261 262
ENDBRANCH 247 261
ENDBRANCH 244 245
ENDBRANCH 243 244
ENDBRANCH 239 243
ENDBRANCH 238 239
ENDBRANCH 221 238
ENDBRANCH 218 219
ENDBRANCH 217 218
ENDBRANCH 213 217
ENDBRANCH 212 213
ENDBRANCH 198 212
ENDBRANCH 195 196
ENDBRANCH 194 195
ENDBRANCH 190 194
ENDBRANCH 189 190
ENDBRANCH 175 189
ENDBRANCH 172 173
ENDBRANCH 171 172
ENDBRANCH 167 171
ENDBRANCH 166 167
ENDBRANCH 152 166
ENDBRANCH 149 150
ENDBRANCH 148 149
ENDBRANCH 144 148
ENDBRANCH 143 144
ENDBRANCH 128 143
ENDBRANCH 125 126
ENDBRANCH 124 125
ENDBRANCH 120 124
ENDBRANCH 119 120
ENDBRANCH 102 119
ENDBRANCH  99 100
ENDBRANCH  98  99
ENDBRANCH  94  98
ENDBRANCH  93  94
ENDBRANCH  79  93
ENDBRANCH  76  77
ENDBRANCH  75  76
ENDBRANCH  71  75
ENDBRANCH  70  71
ENDBRANCH  56  70
ENDBRANCH  53  54
ENDBRANCH  52  53
ENDBRANCH  48  52
ENDBRANCH  47  48
ENDBRANCH  32  47
ENDBRANCH  29  30
ENDBRANCH  28  29
ENDBRANCH  24  28
ENDBRANCH  23  24
ENDBRANCH   9  23
ENDBRANCH   6   7
ENDBRANCH   5   6
ENDBRANCH   1   5
BRANCH   1 937
ATOM    937  O3' U   B  38     -51.521 -34.615 -11.976  0.00  0.00    +0.000 OA
BRANCH 937 940
ATOM    938  C4' U   B  38     -50.270 -32.704 -11.112  0.00  0.00    +0.000 C 
ATOM    939  O4' U   B  38     -49.610 -32.422  -9.848  0.00  0.00    +0.000 OA
ATOM    940  C3' U   B  38     -51.143 -33.899 -10.807  0.00  0.00    +0.000 C 
ATOM    941  C2' U   B  38     -50.260 -34.702  -9.858  0.00  0.00    +0.000 C 
ATOM    942  C1' U   B  38     -49.601 -33.586  -9.048  0.00  0.00    +0.000 C 
BRANCH 942 943
ATOM    943  N1  U   B  38     -50.320 -33.307  -7.783  0.00  0.00    +0.000 N 
ATOM    944  C2  U   B  38     -50.049 -34.125  -6.700  0.00  0.00    +0.000 A 
ATOM    945  O2  U   B  38     -49.255 -35.052  -6.751  0.00  0.00    +0.000 OA
ATOM    946  N3  U   B  38     -50.749 -33.823  -5.553  0.00  0.00    +0.000 N 
ATOM    947  C4  U   B  38     -51.664 -32.804  -5.376  0.00  0.00    +0.000 A 
ATOM    948  O4  U   B  38     -52.208 -32.662  -4.285  0.00  0.00    +0.000 OA
ATOM    949  C5  U   B  38     -51.886 -32.003  -6.538  0.00  0.00    +0.000 A 
ATOM    950  C6  U   B  38     -51.221 -32.274  -7.674  0.00  0.00    +0.000 A 
ATOM    951  H   U   B  38     -50.578 -34.398  -4.772  0.00  0.00    +0.000 HD
ENDBRANCH 942 943
BRANCH 941 952
ATOM    952  O2' U   B  38     -49.265 -35.420 -10.554  0.00  0.00    +0.000 OA
ATOM    953  H   U   B  38     -48.739 -34.806 -11.091  0.00  0.00    +0.000 HD
ENDBRANCH 941 952
BRANCH 938 954
ATOM    954  C5' U   B  38     -50.990 -31.470 -11.596  0.00  0.00    +0.000 C 
BRANCH 954 955
ATOM    955  O5' U   B  38     -51.961 -31.044 -10.658  0.00  0.00    +0.000 OA
BRANCH 955 956
ATOM    956  P   U   B  38     -52.594 -29.589 -10.733  0.00  0.00    +0.000 P 
ATOM    957  OP1 U   B  38     -53.114 -29.377 -12.101  0.00  0.00    +0.000 OA
BRANCH 956 958
ATOM    958  OP2 U   B  38     -53.497 -29.422  -9.565  0.00  0.00    +0.000 OA
ATOM    959  H   U   B  38     -54.272 -29.996  -9.671  0.00  0.00    +0.000 HD
ENDBRANCH 956 958
BRANCH 956 960
ATOM    960  O3' A   B  37     -51.311 -28.625 -10.537  0.00  0.00    +0.000 OA
BRANCH 960 963
ATOM    961  C4' A   B  37     -50.210 -27.005  -9.078  0.00  0.00    +0.000 C 
ATOM    962  O4' A   B  37     -49.299 -27.124  -7.957  0.00  0.00    +0.000 OA
ATOM    963  C3' A   B  37     -50.768 -28.403  -9.244  0.00  0.00    +0.000 C 
ATOM    964  C2' A   B  37     -49.552 -29.266  -8.937  0.00  0.00    +0.000 C 
ATOM    965  C1' A   B  37     -48.895 -28.472  -7.814  0.00  0.00    +0.000 C 
BRANCH 965 966
ATOM    966  N9  A   B  37     -49.299 -28.945  -6.481  0.00  0.00    +0.000 N 
ATOM    967  C8  A   B  37     -50.230 -28.405  -5.634  0.00  0.00    +0.000 A 
ATOM    968  N7  A   B  37     -50.367 -29.061  -4.508  0.00  0.00    +0.000 NA
ATOM    969  C5  A   B  37     -49.461 -30.109  -4.622  0.00  0.00    +0.000 A 
ATOM    970  C6  A   B  37     -49.120 -31.166  -3.760  0.00  0.00    +0.000 A 
ATOM    971  N6  A   B  37     -49.681 -31.352  -2.560  0.00  0.00    +0.000 N 
ATOM    972  N1  A   B  37     -48.177 -32.037  -4.176  0.00  0.00    +0.000 NA
ATOM    973  C2  A   B  37     -47.615 -31.848  -5.377  0.00  0.00    +0.000 A 
ATOM    974  N3  A   B  37     -47.852 -30.895  -6.273  0.00  0.00    +0.000 NA
ATOM    975  C4  A   B  37     -48.799 -30.048  -5.829  0.00  0.00    +0.000 A 
ATOM    976  H   A   B  37     -50.371 -30.728  -2.237  0.00  0.00    +0.000 HD
ATOM    977  H   A   B  37     -49.404 -32.113  -2.000  0.00  0.00    +0.000 HD
ENDBRANCH 965 966
BRANCH 964 978
ATOM    978  O2' A   B  37     -48.671 -29.332 -10.039  0.00  0.00    +0.000 OA
ATOM    979  H   A   B  37     -48.411 -28.434 -10.299  0.00  0.00    +0.000 HD
ENDBRANCH 964 978
BRANCH 961 980
ATOM    980  C5' A   B  37     -51.226 -25.925  -8.802  0.00  0.00    +0.000 C 
BRANCH 980 981
ATOM    981  O5' A   B  37     -52.085 -26.294  -7.734  0.00  0.00    +0.000 OA
BRANCH 981 982
ATOM    982  P   A   B  37     -53.172 -25.277  -7.184  0.00  0.00    +0.000 P 
ATOM    983  OP1 A   B  37     -53.945 -24.760  -8.335  0.00  0.00    +0.000 OA
BRANCH 982 984
ATOM    984  OP2 A   B  37     -53.879 -25.933  -6.051  0.00  0.00    +0.000 OA
ATOM    985  H   A   B  37     -54.424 -26.661  -6.388  0.00  0.00    +0.000 HD
ENDBRANCH 982 984
BRANCH 982 986
ATOM    986  O3' U   B  36     -52.270 -24.068  -6.600  0.00  0.00    +0.000 OA
BRANCH 986 989
ATOM    987  C4' U   B  36     -51.566 -22.821  -4.631  0.00  0.00    +0.000 C 
ATOM    988  O4' U   B  36     -50.581 -23.062  -3.588  0.00  0.00    +0.000 OA
ATOM    989  C3' U   B  36     -51.714 -24.163  -5.299  0.00  0.00    +0.000 C 
ATOM    990  C2' U   B  36     -50.281 -24.690  -5.282  0.00  0.00    +0.000 C 
ATOM    991  C1' U   B  36     -49.806 -24.198  -3.915  0.00  0.00    +0.000 C 
BRANCH 991 992
ATOM    992  N1  U   B  36     -49.978 -25.220  -2.856  0.00  0.00    +0.000 N 
ATOM    993  C2  U   B  36     -49.020 -26.217  -2.764  0.00  0.00    +0.000 A 
ATOM    994  O2  U   B  36     -48.058 -26.284  -3.510  0.00  0.00    +0.000 OA
ATOM    995  N3  U   B  36     -49.232 -27.141  -1.767  0.00  0.00    +0.000 N 
ATOM    996  C4  U   B  36     -50.277 -27.169  -0.865  0.00  0.00    +0.000 A 
ATOM    997  O4  U   B  36     -50.326 -28.067  -0.025  0.00  0.00    +0.000 OA
ATOM    998  C5  U   B  36     -51.224 -26.109  -1.021  0.00  0.00    +0.000 A 
ATOM    999  C6  U   B  36     -51.045 -25.192  -1.987  0.00  0.00    +0.000 A 
ATOM   1000  H   U   B  36     -48.565 -27.861  -1.688  0.00  0.00    +0.000 HD
ENDBRANCH 991 992
BRANCH 9901001
ATOM   1001  O2' U   B  36     -49.498 -24.095  -6.290  0.00  0.00    +0.000 OA
ATOM   1002  H   U   B  36     -49.524 -23.130  -6.192  0.00  0.00    +0.000 HD
ENDBRANCH 9901001
BRANCH 9871003
ATOM   1003  C5' U   B  36     -52.828 -22.245  -4.031  0.00  0.00    +0.000 C 
BRANCH10031004
ATOM   1004  O5' U   B  36     -53.409 -23.137  -3.092  0.00  0.00    +0.000 OA
BRANCH10041005
ATOM   1005  P   U   B  36     -54.646 -22.697  -2.189  0.00  0.00    +0.000 P 
ATOM   1006  OP1 U   B  36     -55.672 -22.093  -3.070  0.00  0.00    +0.000 OA
BRANCH10051007
ATOM   1007  OP2 U   B  36     -55.003 -23.844  -1.315  0.00  0.00    +0.000 OA
ATOM   1008  H   U   B  36     -55.364 -24.563  -1.857  0.00  0.00    +0.000 HD
ENDBRANCH10051007
BRANCH10051009
ATOM   1009  O3' A   B  35     -54.048 -21.514  -1.268  0.00  0.00    +0.000 OA
BRANCH10091012
ATOM   1010  C4' A   B  35     -53.161 -20.935   0.937  0.00  0.00    +0.000 C 
ATOM   1011  O4' A   B  35     -51.843 -21.032   1.534  0.00  0.00    +0.000 OA
ATOM   1012  C3' A   B  35     -53.052 -21.800  -0.301  0.00  0.00    +0.000 C 
ATOM   1013  C2' A   B  35     -51.643 -21.481  -0.779  0.00  0.00    +0.000 C 
ATOM   1014  C1' A   B  35     -50.894 -21.391   0.547  0.00  0.00    +0.000 C 
BRANCH10141015
ATOM   1015  N9  A   B  35     -50.278 -22.676   0.917  0.00  0.00    +0.000 N 
ATOM   1016  C8  A   B  35     -50.670 -23.573   1.879  0.00  0.00    +0.000 A 
ATOM   1017  N7  A   B  35     -49.902 -24.633   1.954  0.00  0.00    +0.000 NA
ATOM   1018  C5  A   B  35     -48.937 -24.422   0.975  0.00  0.00    +0.000 A 
ATOM   1019  C6  A   B  35     -47.834 -25.179   0.549  0.00  0.00    +0.000 A 
ATOM   1020  N6  A   B  35     -47.501 -26.363   1.077  0.00  0.00    +0.000 N 
ATOM   1021  N1  A   B  35     -47.082 -24.682  -0.453  0.00  0.00    +0.000 NA
ATOM   1022  C2  A   B  35     -47.418 -23.502  -0.987  0.00  0.00    +0.000 A 
ATOM   1023  N3  A   B  35     -48.427 -22.697  -0.670  0.00  0.00    +0.000 NA
ATOM   1024  C4  A   B  35     -49.158 -23.224   0.330  0.00  0.00    +0.000 A 
ATOM   1025  H   A   B  35     -46.715 -26.850   0.738  0.00  0.00    +0.000 HD
ATOM   1026  H   A   B  35     -48.042 -26.747   1.805  0.00  0.00    +0.000 HD
ENDBRANCH10141015
BRANCH10131027
ATOM   1027  O2' A   B  35     -51.585 -20.227  -1.433  0.00  0.00    +0.000 OA
ATOM   1028  H   A   B  35     -51.922 -19.537  -0.840  0.00  0.00    +0.000 HD
ENDBRANCH10131027
BRANCH10101029
ATOM   1029  C5' A   B  35     -54.213 -21.336   1.943  0.00  0.00    +0.000 C 
BRANCH10291030
ATOM   1030  O5' A   B  35     -53.905 -22.583   2.553  0.00  0.00    +0.000 OA
BRANCH10301031
ATOM   1031  P   A   B  35     -54.595 -23.011   3.926  0.00  0.00    +0.000 P 
ATOM   1032  OP1 A   B  35     -56.049 -22.747   3.815  0.00  0.00    +0.000 OA
BRANCH10311033
ATOM   1033  OP2 A   B  35     -54.122 -24.381   4.262  0.00  0.00    +0.000 OA
ATOM   1034  H   A   B  35     -54.491 -25.015   3.627  0.00  0.00    +0.000 HD
ENDBRANCH10311033
BRANCH10311035
ATOM   1035  O3' A   B  34     -53.984 -21.955   4.979  0.00  0.00    +0.000 OA
BRANCH10351038
ATOM   1036  C4' A   B  34     -52.422 -21.630   6.840  0.00  0.00    +0.000 C 
ATOM   1037  O4' A   B  34     -50.987 -21.432   6.915  0.00  0.00    +0.000 OA
ATOM   1038  C3' A   B  34     -52.642 -22.101   5.419  0.00  0.00    +0.000 C 
ATOM   1039  C2' A   B  34     -51.653 -21.235   4.652  0.00  0.00    +0.000 C 
ATOM   1040  C1' A   B  34     -50.467 -21.221   5.614  0.00  0.00    +0.000 C 
BRANCH10401041
ATOM   1041  N9  A   B  34     -49.500 -22.286   5.306  0.00  0.00    +0.000 N 
ATOM   1042  C8  A   B  34     -49.350 -23.506   5.910  0.00  0.00    +0.000 A 
ATOM   1043  N7  A   B  34     -48.389 -24.235   5.389  0.00  0.00    +0.000 NA
ATOM   1044  C5  A   B  34     -47.872 -23.442   4.374  0.00  0.00    +0.000 A 
ATOM   1045  C6  A   B  34     -46.833 -23.639   3.446  0.00  0.00    +0.000 A 
ATOM   1046  N1  A   B  34     -46.578 -22.647   2.570  0.00  0.00    +0.000 NA
ATOM   1047  C2  A   B  34     -47.317 -21.532   2.626  0.00  0.00    +0.000 A 
ATOM   1048  N3  A   B  34     -48.317 -21.228   3.451  0.00  0.00    +0.000 NA
ATOM   1049  C4  A   B  34     -48.546 -22.239   4.310  0.00  0.00    +0.000 A 
BRANCH10451050
ATOM   1050  N6  A   B  34     -46.099 -24.756   3.386  0.00  0.00    +0.000 N 
ATOM   1051  H   A   B  34     -45.383 -24.839   2.715  0.00  0.00    +0.000 HD
ATOM   1052  H   A   B  34     -46.274 -25.495   4.013  0.00  0.00    +0.000 HD
ENDBRANCH10451050
ENDBRANCH10401041
BRANCH10391053
ATOM   1053  O2' A   B  34     -52.135 -19.915   4.483  0.00  0.00    +0.000 OA
ATOM   1054  H   A   B  34     -52.342 -19.533   5.350  0.00  0.00    +0.000 HD
ENDBRANCH10391053
BRANCH10361055
ATOM   1055  C5' A   B  34     -52.870 -22.573   7.931  0.00  0.00    +0.000 C 
BRANCH10551056
ATOM   1056  O5' A   B  34     -52.262 -23.848   7.793  0.00  0.00    +0.000 OA
BRANCH10561057
ATOM   1057  P   A   B  34     -52.327 -24.910   8.981  0.00  0.00    +0.000 P 
ATOM   1058  OP2 A   B  34     -51.629 -26.143   8.530  0.00  0.00    +0.000 OA
BRANCH10571059
ATOM   1059  OP1 A   B  34     -53.728 -24.993   9.458  0.00  0.00    +0.000 OA
ATOM   1060  H   A   B  34     -54.275 -25.422   8.781  0.00  0.00    +0.000 HD
ENDBRANCH10571059
BRANCH10571061
ATOM   1061  O3' U   B  33     -51.448 -24.197  10.120  0.00  0.00    +0.000 OA
BRANCH10611064
ATOM   1062  C4' U   B  33     -49.345 -24.334  11.364  0.00  0.00    +0.000 C 
ATOM   1063  O4' U   B  33     -48.004 -23.831  11.125  0.00  0.00    +0.000 OA
ATOM   1064  C3' U   B  33     -50.030 -24.184  10.025  0.00  0.00    +0.000 C 
ATOM   1065  C2' U   B  33     -49.463 -22.861   9.524  0.00  0.00    +0.000 C 
ATOM   1066  C1' U   B  33     -48.010 -22.968  10.004  0.00  0.00    +0.000 C 
BRANCH10661067
ATOM   1067  N1  U   B  33     -47.116 -23.532   8.962  0.00  0.00    +0.000 N 
ATOM   1068  C2  U   B  33     -46.630 -22.660   8.003  0.00  0.00    +0.000 A 
ATOM   1069  O2  U   B  33     -46.902 -21.471   7.988  0.00  0.00    +0.000 OA
ATOM   1070  N3  U   B  33     -45.807 -23.233   7.057  0.00  0.00    +0.000 N 
ATOM   1071  C4  U   B  33     -45.431 -24.558   6.974  0.00  0.00    +0.000 A 
ATOM   1072  O4  U   B  33     -44.687 -24.926   6.064  0.00  0.00    +0.000 OA
ATOM   1073  C5  U   B  33     -45.977 -25.392   7.999  0.00  0.00    +0.000 A 
ATOM   1074  C6  U   B  33     -46.781 -24.864   8.936  0.00  0.00    +0.000 A 
ATOM   1075  H   U   B  33     -45.448 -22.631   6.365  0.00  0.00    +0.000 HD
ENDBRANCH10661067
BRANCH10651076
ATOM   1076  O2' U   B  33     -50.077 -21.755  10.150  0.00  0.00    +0.000 OA
ATOM   1077  H   U   B  33     -49.985 -21.836  11.112  0.00  0.00    +0.000 HD
ENDBRANCH10651076
BRANCH10621078
ATOM   1078  C5' U   B  33     -49.278 -25.737  11.911  0.00  0.00    +0.000 C 
BRANCH10781079
ATOM   1079  O5' U   B  33     -48.726 -26.636  10.959  0.00  0.00    +0.000 OA
BRANCH10791080
ATOM   1080  P   U   B  33     -48.300 -28.116  11.376  0.00  0.00    +0.000 P 
ATOM   1081  OP2 U   B  33     -47.706 -28.780  10.187  0.00  0.00    +0.000 OA
BRANCH10801082
ATOM   1082  OP1 U   B  33     -49.443 -28.749  12.077  0.00  0.00    +0.000 OA
ATOM   1083  H   U   B  33     -50.159 -28.915  11.444  0.00  0.00    +0.000 HD
ENDBRANCH10801082
BRANCH10801084
ATOM   1084  O3' A   B  32     -47.139 -27.855  12.440  0.00  0.00    +0.000 OA
BRANCH10841087
ATOM   1085  C4' A   B  32     -44.745 -28.090  12.859  0.00  0.00    +0.000 C 
ATOM   1086  O4' A   B  32     -43.603 -27.219  12.656  0.00  0.00    +0.000 OA
ATOM   1087  C3' A   B  32     -45.840 -27.462  12.020  0.00  0.00    +0.000 C 
ATOM   1088  C2' A   B  32     -45.570 -25.973  12.197  0.00  0.00    +0.000 C 
ATOM   1089  C1' A   B  32     -44.039 -25.952  12.204  0.00  0.00    +0.000 C 
BRANCH10891090
ATOM   1090  N9  A   B  32     -43.478 -25.721  10.863  0.00  0.00    +0.000 N 
ATOM   1091  C8  A   B  32     -42.967 -26.644   9.989  0.00  0.00    +0.000 A 
ATOM   1092  N7  A   B  32     -42.536 -26.127   8.864  0.00  0.00    +0.000 NA
ATOM   1093  C5  A   B  32     -42.777 -24.768   9.004  0.00  0.00    +0.000 A 
ATOM   1094  C6  A   B  32     -42.547 -23.671   8.156  0.00  0.00    +0.000 A 
ATOM   1095  N1  A   B  32     -42.909 -22.451   8.597  0.00  0.00    +0.000 NA
ATOM   1096  C2  A   B  32     -43.461 -22.343   9.810  0.00  0.00    +0.000 A 
ATOM   1097  N3  A   B  32     -43.729 -23.297  10.699  0.00  0.00    +0.000 NA
ATOM   1098  C4  A   B  32     -43.359 -24.502  10.229  0.00  0.00    +0.000 A 
BRANCH10941099
ATOM   1099  N6  A   B  32     -41.997 -23.781   6.941  0.00  0.00    +0.000 N 
ATOM   1100  H   A   B  32     -41.859 -22.978   6.389  0.00  0.00    +0.000 HD
ATOM   1101  H   A   B  32     -41.731 -24.665   6.599  0.00  0.00    +0.000 HD
ENDBRANCH10941099
ENDBRANCH10891090
BRANCH10881102
ATOM   1102  O2' A   B  32     -46.050 -25.501  13.444  0.00  0.00    +0.000 OA
ATOM   1103  H   A   B  32     -45.655 -26.022  14.161  0.00  0.00    +0.000 HD
ENDBRANCH10881102
BRANCH10851104
ATOM   1104  C5' A   B  32     -44.378 -29.507  12.491  0.00  0.00    +0.000 C 
BRANCH11041105
ATOM   1105  O5' A   B  32     -44.054 -29.607  11.109  0.00  0.00    +0.000 OA
BRANCH11051106
ATOM   1106  P   A   B  32     -43.408 -30.935  10.515  0.00  0.00    +0.000 P 
ATOM   1107  OP2 A   B  32     -43.150 -30.712   9.065  0.00  0.00    +0.000 OA
BRANCH11061108
ATOM   1108  OP1 A   B  32     -44.233 -32.090  10.946  0.00  0.00    +0.000 OA
ATOM   1109  H   A   B  32     -45.092 -32.059  10.497  0.00  0.00    +0.000 HD
ENDBRANCH11061108
BRANCH11061110
ATOM   1110  O3' A   B  31     -42.010 -31.017  11.269  0.00  0.00    +0.000 OA
BRANCH11101113
ATOM   1111  C4' A   B  31     -39.582 -30.851  11.087  0.00  0.00    +0.000 C 
ATOM   1112  O4' A   B  31     -38.645 -29.747  11.148  0.00  0.00    +0.000 OA
ATOM   1113  C3' A   B  31     -40.925 -30.184  10.879  0.00  0.00    +0.000 C 
ATOM   1114  C2' A   B  31     -40.793 -28.928  11.730  0.00  0.00    +0.000 C 
ATOM   1115  C1' A   B  31     -39.330 -28.555  11.484  0.00  0.00    +0.000 C 
BRANCH11151116
ATOM   1116  N9  A   B  31     -39.175 -27.598  10.375  0.00  0.00    +0.000 N 
ATOM   1117  C8  A   B  31     -38.777 -27.851   9.086  0.00  0.00    +0.000 A 
ATOM   1118  N7  A   B  31     -38.734 -26.781   8.326  0.00  0.00    +0.000 NA
ATOM   1119  C5  A   B  31     -39.128 -25.753   9.171  0.00  0.00    +0.000 A 
ATOM   1120  C6  A   B  31     -39.289 -24.373   8.971  0.00  0.00    +0.000 A 
ATOM   1121  N1  A   B  31     -39.701 -23.631  10.020  0.00  0.00    +0.000 NA
ATOM   1122  C2  A   B  31     -39.929 -24.239  11.189  0.00  0.00    +0.000 A 
ATOM   1123  N3  A   B  31     -39.813 -25.528  11.501  0.00  0.00    +0.000 NA
ATOM   1124  C4  A   B  31     -39.404 -26.240  10.434  0.00  0.00    +0.000 A 
BRANCH11201125
ATOM   1125  N6  A   B  31     -39.065 -23.764   7.801  0.00  0.00    +0.000 N 
ATOM   1126  H   A   B  31     -38.764 -24.287   7.023  0.00  0.00    +0.000 HD
ATOM   1127  H   A   B  31     -39.201 -22.793   7.718  0.00  0.00    +0.000 HD
ENDBRANCH11201125
ENDBRANCH11151116
BRANCH11141128
ATOM   1128  O2' A   B  31     -40.979 -29.208  13.107  0.00  0.00    +0.000 OA
ATOM   1129  H   A   B  31     -40.350 -29.892  13.386  0.00  0.00    +0.000 HD
ENDBRANCH11141128
BRANCH11111130
ATOM   1130  C5' A   B  31     -39.160 -31.822  10.006  0.00  0.00    +0.000 C 
BRANCH11301131
ATOM   1131  O5' A   B  31     -39.126 -31.187   8.735  0.00  0.00    +0.000 OA
BRANCH11311132
ATOM   1132  P   A   B  31     -38.447 -31.904   7.481  0.00  0.00    +0.000 P 
ATOM   1133  OP2 A   B  31     -38.530 -30.975   6.321  0.00  0.00    +0.000 OA
BRANCH11321134
ATOM   1134  OP1 A   B  31     -39.004 -33.274   7.368  0.00  0.00    +0.000 OA
ATOM   1135  H   A   B  31     -38.602 -33.725   6.609  0.00  0.00    +0.000 HD
ENDBRANCH11321134
BRANCH11321136
ATOM   1136  O3' A   B  30     -36.916 -32.032   7.920  0.00  0.00    +0.000 OA
BRANCH11361139
ATOM   1137  C4' A   B  30     -34.606 -31.295   7.621  0.00  0.00    +0.000 C 
ATOM   1138  O4' A   B  30     -33.855 -30.145   8.082  0.00  0.00    +0.000 OA
ATOM   1139  C3' A   B  30     -36.051 -30.907   7.858  0.00  0.00    +0.000 C 
ATOM   1140  C2' A   B  30     -35.961 -30.143   9.171  0.00  0.00    +0.000 C 
ATOM   1141  C1' A   B  30     -34.641 -29.393   8.987  0.00  0.00    +0.000 C 
BRANCH11411142
ATOM   1142  N9  A   B  30     -34.841 -28.045   8.429  0.00  0.00    +0.000 N 
ATOM   1143  C8  A   B  30     -34.650 -27.621   7.137  0.00  0.00    +0.000 A 
ATOM   1144  N7  A   B  30     -34.919 -26.349   6.954  0.00  0.00    +0.000 NA
ATOM   1145  C5  A   B  30     -35.313 -25.904   8.209  0.00  0.00    +0.000 A 
ATOM   1146  C6  A   B  30     -35.728 -24.652   8.683  0.00  0.00    +0.000 A 
ATOM   1147  N1  A   B  30     -36.054 -24.548   9.989  0.00  0.00    +0.000 NA
ATOM   1148  C2  A   B  30     -35.965 -25.636  10.762  0.00  0.00    +0.000 A 
ATOM   1149  N3  A   B  30     -35.586 -26.870  10.432  0.00  0.00    +0.000 NA
ATOM   1150  C4  A   B  30     -35.271 -26.938   9.125  0.00  0.00    +0.000 A 
BRANCH11461151
ATOM   1151  N6  A   B  30     -35.823 -23.562   7.911  0.00  0.00    +0.000 N 
ATOM   1152  H   A   B  30     -35.591 -23.614   6.956  0.00  0.00    +0.000 HD
ATOM   1153  H   A   B  30     -36.125 -22.709   8.299  0.00  0.00    +0.000 HD
ENDBRANCH11461151
ENDBRANCH11411142
BRANCH11401154
ATOM   1154  O2' A   B  30     -35.849 -31.019  10.280  0.00  0.00    +0.000 OA
ATOM   1155  H   A   B  30     -35.083 -31.601  10.156  0.00  0.00    +0.000 HD
ENDBRANCH11401154
BRANCH11371156
ATOM   1156  C5' A   B  30     -34.232 -31.615   6.191  0.00  0.00    +0.000 C 
BRANCH11561157
ATOM   1157  O5' A   B  30     -34.473 -30.503   5.335  0.00  0.00    +0.000 OA
BRANCH11571158
ATOM   1158  P   A   B  30     -33.884 -30.472   3.852  0.00  0.00    +0.000 P 
ATOM   1159  OP1 A   B  30     -34.230 -31.749   3.185  0.00  0.00    +0.000 OA
BRANCH11581160
ATOM   1160  OP2 A   B  30     -34.284 -29.180   3.230  0.00  0.00    +0.000 OA
ATOM   1161  H   A   B  30     -33.937 -29.136   2.325  0.00  0.00    +0.000 HD
ENDBRANCH11581160
BRANCH11581162
ATOM   1162  O3' A   B  29     -32.295 -30.455   4.084  0.00  0.00    +0.000 OA
BRANCH11621165
ATOM   1163  C4' A   B  29     -30.205 -29.182   4.023  0.00  0.00    +0.000 C 
ATOM   1164  O4' A   B  29     -29.597 -28.218   4.920  0.00  0.00    +0.000 OA
ATOM   1165  C3' A   B  29     -31.642 -29.266   4.501  0.00  0.00    +0.000 C 
ATOM   1166  C2' A   B  29     -31.476 -29.169   6.012  0.00  0.00    +0.000 C 
ATOM   1167  C1' A   B  29     -30.345 -28.146   6.121  0.00  0.00    +0.000 C 
BRANCH11671168
ATOM   1168  N9  A   B  29     -30.856 -26.773   6.273  0.00  0.00    +0.000 N 
ATOM   1169  C8  A   B  29     -30.946 -25.786   5.325  0.00  0.00    +0.000 A 
ATOM   1170  N7  A   B  29     -31.451 -24.663   5.780  0.00  0.00    +0.000 NA
ATOM   1171  C5  A   B  29     -31.713 -24.928   7.116  0.00  0.00    +0.000 A 
ATOM   1172  C6  A   B  29     -32.254 -24.151   8.149  0.00  0.00    +0.000 A 
ATOM   1173  N6  A   B  29     -32.652 -22.879   7.989  0.00  0.00    +0.000 N 
ATOM   1174  N1  A   B  29     -32.382 -24.717   9.366  0.00  0.00    +0.000 NA
ATOM   1175  C2  A   B  29     -31.989 -25.986   9.527  0.00  0.00    +0.000 A 
ATOM   1176  N3  A   B  29     -31.465 -26.822   8.632  0.00  0.00    +0.000 NA
ATOM   1177  C4  A   B  29     -31.352 -26.224   7.432  0.00  0.00    +0.000 A 
ATOM   1178  H   A   B  29     -32.569 -22.444   7.110  0.00  0.00    +0.000 HD
ATOM   1179  H   A   B  29     -33.027 -22.381   8.751  0.00  0.00    +0.000 HD
ENDBRANCH11671168
BRANCH11661180
ATOM   1180  O2' A   B  29     -31.045 -30.398   6.570  0.00  0.00    +0.000 OA
ATOM   1181  H   A   B  29     -30.221 -30.677   6.140  0.00  0.00    +0.000 HD
ENDBRANCH11661180
BRANCH11631182
ATOM   1182  C5' A   B  29     -30.006 -28.749   2.590  0.00  0.00    +0.000 C 
BRANCH11821183
ATOM   1183  O5' A   B  29     -30.599 -27.478   2.347  0.00  0.00    +0.000 OA
BRANCH11831184
ATOM   1184  P   A   B  29     -30.294 -26.677   0.998  0.00  0.00    +0.000 P 
ATOM   1185  OP1 A   B  29     -30.472 -27.601  -0.145  0.00  0.00    +0.000 OA
BRANCH11841186
ATOM   1186  OP2 A   B  29     -31.055 -25.400   1.046  0.00  0.00    +0.000 OA
ATOM   1187  H   A   B  29     -30.887 -24.893   0.236  0.00  0.00    +0.000 HD
ENDBRANCH11841186
BRANCH11841188
ATOM   1188  O3' U   B  28     -28.722 -26.344   1.122  0.00  0.00    +0.000 OA
BRANCH11881191
ATOM   1189  C4' U   B  28     -27.022 -24.629   1.516  0.00  0.00    +0.000 C 
ATOM   1190  O4' U   B  28     -26.483 -24.009   2.715  0.00  0.00    +0.000 OA
ATOM   1191  C3' U   B  28     -28.277 -25.321   2.001  0.00  0.00    +0.000 C 
ATOM   1192  C2' U   B  28     -27.841 -25.843   3.363  0.00  0.00    +0.000 C 
ATOM   1193  C1' U   B  28     -26.971 -24.685   3.859  0.00  0.00    +0.000 C 
BRANCH11931194
ATOM   1194  N1  U   B  28     -27.737 -23.725   4.690  0.00  0.00    +0.000 N 
ATOM   1195  C2  U   B  28     -27.947 -24.061   6.018  0.00  0.00    +0.000 A 
ATOM   1196  O2  U   B  28     -27.531 -25.096   6.512  0.00  0.00    +0.000 OA
ATOM   1197  N3  U   B  28     -28.664 -23.142   6.750  0.00  0.00    +0.000 N 
ATOM   1198  C4  U   B  28     -29.181 -21.946   6.299  0.00  0.00    +0.000 A 
ATOM   1199  O4  U   B  28     -29.806 -21.225   7.077  0.00  0.00    +0.000 OA
ATOM   1200  C5  U   B  28     -28.923 -21.671   4.919  0.00  0.00    +0.000 A 
ATOM   1201  C6  U   B  28     -28.230 -22.547   4.180  0.00  0.00    +0.000 A 
ATOM   1202  H   U   B  28     -28.825 -23.362   7.696  0.00  0.00    +0.000 HD
ENDBRANCH11931194
BRANCH11921203
ATOM   1203  O2' U   B  28     -27.045 -27.004   3.251  0.00  0.00    +0.000 OA
ATOM   1204  H   U   B  28     -26.279 -26.818   2.685  0.00  0.00    +0.000 HD
ENDBRANCH11921203
BRANCH11891205
ATOM   1205  C5' U   B  28     -27.211 -23.589   0.441  0.00  0.00    +0.000 C 
BRANCH12051206
ATOM   1206  O5' U   B  28     -28.132 -22.582   0.845  0.00  0.00    +0.000 OA
BRANCH12061207
ATOM   1207  P   U   B  28     -28.298 -21.232   0.012  0.00  0.00    +0.000 P 
ATOM   1208  OP1 U   B  28     -28.497 -21.584  -1.412  0.00  0.00    +0.000 OA
BRANCH12071209
ATOM   1209  OP2 U   B  28     -29.296 -20.380   0.709  0.00  0.00    +0.000 OA
ATOM   1210  H   U   B  28     -29.413 -19.551   0.218  0.00  0.00    +0.000 HD
ENDBRANCH12071209
BRANCH12071211
ATOM   1211  O3' U   B  27     -26.847 -20.538   0.148  0.00  0.00    +0.000 OA
BRANCH12111214
ATOM   1212  C4' U   B  27     -25.537 -18.730   1.142  0.00  0.00    +0.000 C 
ATOM   1213  O4' U   B  27     -24.891 -18.550   2.432  0.00  0.00    +0.000 OA
ATOM   1214  C3' U   B  27     -26.463 -19.907   1.361  0.00  0.00    +0.000 C 
ATOM   1215  C2' U   B  27     -25.629 -20.798   2.269  0.00  0.00    +0.000 C 
ATOM   1216  C1' U   B  27     -24.946 -19.760   3.165  0.00  0.00    +0.000 C 
BRANCH12161217
ATOM   1217  N1  U   B  27     -25.694 -19.524   4.421  0.00  0.00    +0.000 N 
ATOM   1218  C2  U   B  27     -25.532 -20.447   5.441  0.00  0.00    +0.000 A 
ATOM   1219  O2  U   B  27     -24.815 -21.427   5.340  0.00  0.00    +0.000 OA
ATOM   1220  N3  U   B  27     -26.247 -20.183   6.589  0.00  0.00    +0.000 N 
ATOM   1221  C4  U   B  27     -27.085 -19.113   6.814  0.00  0.00    +0.000 A 
ATOM   1222  O4  U   B  27     -27.659 -19.013   7.899  0.00  0.00    +0.000 OA
ATOM   1223  C5  U   B  27     -27.200 -18.205   5.714  0.00  0.00    +0.000 A 
ATOM   1224  C6  U   B  27     -26.519 -18.437   4.584  0.00  0.00    +0.000 A 
ATOM   1225  H   U   B  27     -26.149 -20.827   7.327  0.00  0.00    +0.000 HD
ENDBRANCH12161217
BRANCH12151226
ATOM   1226  O2' U   B  27     -24.640 -21.506   1.548  0.00  0.00    +0.000 OA
ATOM   1227  H   U   B  27     -24.080 -20.878   1.065  0.00  0.00    +0.000 HD
ENDBRANCH12151226
BRANCH12121228
ATOM   1228  C5' U   B  27     -26.198 -17.442   0.715  0.00  0.00    +0.000 C 
BRANCH12281229
ATOM   1229  O5' U   B  27     -27.187 -17.028   1.647  0.00  0.00    +0.000 OA
BRANCH12291230
ATOM   1230  P   U   B  27     -27.830 -15.571   1.576  0.00  0.00    +0.000 P 
ATOM   1231  OP1 U   B  27     -28.284 -15.329   0.186  0.00  0.00    +0.000 OA
BRANCH12301232
ATOM   1232  OP2 U   B  27     -28.790 -15.434   2.700  0.00  0.00    +0.000 OA
ATOM   1233  H   U   B  27     -29.554 -16.011   2.545  0.00  0.00    +0.000 HD
ENDBRANCH12301232
BRANCH12301234
ATOM   1234  O3' U   B  26     -26.567 -14.607   1.850  0.00  0.00    +0.000 OA
BRANCH12341237
ATOM   1235  C4' U   B  26     -25.461 -13.124   3.449  0.00  0.00    +0.000 C 
ATOM   1236  O4' U   B  26     -24.557 -13.349   4.566  0.00  0.00    +0.000 OA
ATOM   1237  C3' U   B  26     -26.026 -14.497   3.158  0.00  0.00    +0.000 C 
ATOM   1238  C2' U   B  26     -24.815 -15.391   3.386  0.00  0.00    +0.000 C 
ATOM   1239  C1' U   B  26     -24.163 -14.708   4.594  0.00  0.00    +0.000 C 
BRANCH12391240
ATOM   1240  N1  U   B  26     -24.595 -15.305   5.877  0.00  0.00    +0.000 N 
ATOM   1241  C2  U   B  26     -23.972 -16.478   6.274  0.00  0.00    +0.000 A 
ATOM   1242  O2  U   B  26     -23.102 -17.024   5.621  0.00  0.00    +0.000 OA
ATOM   1243  N3  U   B  26     -24.410 -16.992   7.474  0.00  0.00    +0.000 N 
ATOM   1244  C4  U   B  26     -25.384 -16.465   8.296  0.00  0.00    +0.000 A 
ATOM   1245  O4  U   B  26     -25.668 -17.044   9.344  0.00  0.00    +0.000 OA
ATOM   1246  C5  U   B  26     -25.978 -15.257   7.815  0.00  0.00    +0.000 A 
ATOM   1247  C6  U   B  26     -25.574 -14.732   6.652  0.00  0.00    +0.000 A 
ATOM   1248  H   U   B  26     -23.982 -17.825   7.778  0.00  0.00    +0.000 HD
ENDBRANCH12391240
BRANCH12381249
ATOM   1249  O2' U   B  26     -23.919 -15.349   2.294  0.00  0.00    +0.000 OA
ATOM   1250  H   U   B  26     -23.652 -14.431   2.130  0.00  0.00    +0.000 HD
ENDBRANCH12381249
BRANCH12351251
ATOM   1251  C5' U   B  26     -26.469 -12.062   3.810  0.00  0.00    +0.000 C 
BRANCH12511252
ATOM   1252  O5' U   B  26     -27.272 -12.456   4.910  0.00  0.00    +0.000 OA
BRANCH12521253
ATOM   1253  P   U   B  26     -28.225 -11.415   5.650  0.00  0.00    +0.000 P 
ATOM   1254  OP1 U   B  26     -29.042 -10.727   4.624  0.00  0.00    +0.000 OA
BRANCH12531255
ATOM   1255  OP2 U   B  26     -28.893 -12.119   6.775  0.00  0.00    +0.000 OA
ATOM   1256  H   U   B  26     -29.523 -12.767   6.423  0.00  0.00    +0.000 HD
ENDBRANCH12531255
BRANCH12531257
ATOM   1257  O3' U   B  25     -27.183 -10.344   6.244  0.00  0.00    +0.000 OA
BRANCH12571260
ATOM   1258  C4' U   B  25     -26.114  -9.461   8.253  0.00  0.00    +0.000 C 
ATOM   1259  O4' U   B  25     -24.968  -9.875   9.046  0.00  0.00    +0.000 OA
ATOM   1260  C3' U   B  25     -26.414 -10.668   7.392  0.00  0.00    +0.000 C 
ATOM   1261  C2' U   B  25     -25.018 -11.178   7.063  0.00  0.00    +0.000 C 
ATOM   1262  C1' U   B  25     -24.288 -10.927   8.390  0.00  0.00    +0.000 C 
BRANCH12621263
ATOM   1263  N1  U   B  25     -24.292 -12.118   9.268  0.00  0.00    +0.000 N 
ATOM   1264  C2  U   B  25     -23.342 -13.095   9.017  0.00  0.00    +0.000 A 
ATOM   1265  O2  U   B  25     -22.524 -13.011   8.119  0.00  0.00    +0.000 OA
ATOM   1266  N3  U   B  25     -23.385 -14.182   9.860  0.00  0.00    +0.000 N 
ATOM   1267  C4  U   B  25     -24.261 -14.386  10.905  0.00  0.00    +0.000 A 
ATOM   1268  O4  U   B  25     -24.176 -15.416  11.573  0.00  0.00    +0.000 OA
ATOM   1269  C5  U   B  25     -25.211 -13.335  11.099  0.00  0.00    +0.000 A 
ATOM   1270  C6  U   B  25     -25.193 -12.264  10.295  0.00  0.00    +0.000 A 
ATOM   1271  H   U   B  25     -22.719 -14.889   9.700  0.00  0.00    +0.000 HD
ENDBRANCH12621263
BRANCH12611272
ATOM   1272  O2' U   B  25     -24.404 -10.408   6.048  0.00  0.00    +0.000 OA
ATOM   1273  H   U   B  25     -24.384  -9.476   6.317  0.00  0.00    +0.000 HD
ENDBRANCH12611272
BRANCH12581274
ATOM   1274  C5' U   B  25     -27.230  -9.010   9.161  0.00  0.00    +0.000 C 
BRANCH12741275
ATOM   1275  O5' U   B  25     -27.683 -10.066   9.997  0.00  0.00    +0.000 OA
BRANCH12751276
ATOM   1276  P   U   B  25     -28.632  -9.781  11.246  0.00  0.00    +0.000 P 
ATOM   1277  OP1 U   B  25     -29.789  -8.985  10.775  0.00  0.00    +0.000 OA
BRANCH12761278
ATOM   1278  OP2 U   B  25     -28.858 -11.068  11.953  0.00  0.00    +0.000 OA
ATOM   1279  H   U   B  25     -29.405 -11.648  11.401  0.00  0.00    +0.000 HD
ENDBRANCH12761278
BRANCH12761280
ATOM   1280  O3' U   B  24     -27.726  -8.830  12.168  0.00  0.00    +0.000 OA
BRANCH12801283
ATOM   1281  C4' U   B  24     -26.453  -8.683  14.244  0.00  0.00    +0.000 C 
ATOM   1282  O4' U   B  24     -25.096  -9.044  14.618  0.00  0.00    +0.000 OA
ATOM   1283  C3' U   B  24     -26.663  -9.389  12.923  0.00  0.00    +0.000 C 
ATOM   1284  C2' U   B  24     -25.301  -9.239  12.261  0.00  0.00    +0.000 C 
ATOM   1285  C1' U   B  24     -24.364  -9.411  13.464  0.00  0.00    +0.000 C 
BRANCH12851286
ATOM   1286  N1  U   B  24     -23.894 -10.806  13.618  0.00  0.00    +0.000 N 
ATOM   1287  C2  U   B  24     -22.843 -11.218  12.814  0.00  0.00    +0.000 A 
ATOM   1288  O2  U   B  24     -22.306 -10.491  12.000  0.00  0.00    +0.000 OA
ATOM   1289  N3  U   B  24     -22.446 -12.522  12.995  0.00  0.00    +0.000 N 
ATOM   1290  C4  U   B  24     -22.980 -13.435  13.879  0.00  0.00    +0.000 A 
ATOM   1291  O4  U   B  24     -22.514 -14.573  13.926  0.00  0.00    +0.000 OA
ATOM   1292  C5  U   B  24     -24.059 -12.935  14.673  0.00  0.00    +0.000 A 
ATOM   1293  C6  U   B  24     -24.470 -11.668  14.519  0.00  0.00    +0.000 A 
ATOM   1294  H   U   B  24     -21.701 -12.837  12.434  0.00  0.00    +0.000 HD
ENDBRANCH12851286
BRANCH12841295
ATOM   1295  O2' U   B  24     -25.122  -7.945  11.720  0.00  0.00    +0.000 OA
ATOM   1296  H   U   B  24     -25.250  -7.283  12.417  0.00  0.00    +0.000 HD
ENDBRANCH12841295
BRANCH12811297
ATOM   1297  C5' U   B  24     -27.410  -9.059  15.349  0.00  0.00    +0.000 C 
BRANCH12971298
ATOM   1298  O5' U   B  24     -27.454 -10.464  15.547  0.00  0.00    +0.000 OA
BRANCH12981299
ATOM   1299  P   U   B  24     -28.236 -11.097  16.784  0.00  0.00    +0.000 P 
ATOM   1300  OP2 U   B  24     -28.042 -12.570  16.745  0.00  0.00    +0.000 OA
BRANCH12991301
ATOM   1301  OP1 U   B  24     -29.606 -10.532  16.803  0.00  0.00    +0.000 OA
ATOM   1302  H   U   B  24     -30.109 -10.877  16.049  0.00  0.00    +0.000 HD
ENDBRANCH12991301
BRANCH12991303
ATOM   1303  O3' U   B  23     -27.441 -10.507  18.037  0.00  0.00    +0.000 OA
BRANCH13031306
ATOM   1304  C4' U   B  23     -25.883 -11.028  19.844  0.00  0.00    +0.000 C 
ATOM   1305  O4' U   B  23     -24.434 -11.102  19.927  0.00  0.00    +0.000 OA
ATOM   1306  C3' U   B  23     -26.156 -11.013  18.355  0.00  0.00    +0.000 C 
ATOM   1307  C2' U   B  23     -25.021 -10.150  17.831  0.00  0.00    +0.000 C 
ATOM   1308  C1' U   B  23     -23.864 -10.607  18.731  0.00  0.00    +0.000 C 
BRANCH13081309
ATOM   1309  N1  U   B  23     -23.059 -11.679  18.104  0.00  0.00    +0.000 N 
ATOM   1310  C2  U   B  23     -22.132 -11.302  17.146  0.00  0.00    +0.000 A 
ATOM   1311  O2  U   B  23     -21.960 -10.146  16.810  0.00  0.00    +0.000 OA
ATOM   1312  N3  U   B  23     -21.411 -12.334  16.592  0.00  0.00    +0.000 N 
ATOM   1313  C4  U   B  23     -21.522 -13.675  16.892  0.00  0.00    +0.000 A 
ATOM   1314  O4  U   B  23     -20.805 -14.485  16.307  0.00  0.00    +0.000 OA
ATOM   1315  C5  U   B  23     -22.501 -13.982  17.889  0.00  0.00    +0.000 A 
ATOM   1316  C6  U   B  23     -23.221 -12.997  18.449  0.00  0.00    +0.000 A 
ATOM   1317  H   U   B  23     -20.745 -12.089  15.909  0.00  0.00    +0.000 HD
ENDBRANCH13081309
BRANCH13071318
ATOM   1318  O2' U   B  23     -25.260  -8.773  18.056  0.00  0.00    +0.000 OA
ATOM   1319  H   U   B  23     -25.410  -8.621  19.002  0.00  0.00    +0.000 HD
ENDBRANCH13071318
BRANCH13041320
ATOM   1320  C5' U   B  23     -26.504 -12.166  20.616  0.00  0.00    +0.000 C 
BRANCH13201321
ATOM   1321  O5' U   B  23     -26.189 -13.422  20.030  0.00  0.00    +0.000 OA
BRANCH13211322
ATOM   1322  P   U   B  23     -26.587 -14.787  20.756  0.00  0.00    +0.000 P 
ATOM   1323  OP2 U   B  23     -26.073 -15.915  19.931  0.00  0.00    +0.000 OA
BRANCH13221324
ATOM   1324  OP1 U   B  23     -28.024 -14.725  21.104  0.00  0.00    +0.000 OA
ATOM   1325  H   U   B  23     -28.555 -14.762  20.293  0.00  0.00    +0.000 HD
ENDBRANCH13221324
BRANCH13221326
ATOM   1326  O3' C   B  22     -25.747 -14.724  22.099  0.00  0.00    +0.000 OA
BRANCH13261329
ATOM   1327  C4' C   B  22     -23.844 -15.641  23.323  0.00  0.00    +0.000 C 
ATOM   1328  O4' C   B  22     -22.422 -15.347  23.330  0.00  0.00    +0.000 OA
ATOM   1329  C3' C   B  22     -24.347 -14.951  22.076  0.00  0.00    +0.000 C 
ATOM   1330  C2' C   B  22     -23.527 -13.670  22.067  0.00  0.00    +0.000 C 
ATOM   1331  C1' C   B  22     -22.170 -14.189  22.559  0.00  0.00    +0.000 C 
BRANCH13311332
ATOM   1332  N1  C   B  22     -21.268 -14.547  21.435  0.00  0.00    +0.000 N 
ATOM   1333  C2  C   B  22     -20.571 -13.522  20.789  0.00  0.00    +0.000 A 
ATOM   1334  O2  C   B  22     -20.724 -12.354  21.173  0.00  0.00    +0.000 OA
ATOM   1335  N3  C   B  22     -19.749 -13.828  19.757  0.00  0.00    +0.000 NA
ATOM   1336  C4  C   B  22     -19.608 -15.097  19.365  0.00  0.00    +0.000 A 
ATOM   1337  N4  C   B  22     -18.788 -15.347  18.344  0.00  0.00    +0.000 N 
ATOM   1338  C5  C   B  22     -20.306 -16.157  20.005  0.00  0.00    +0.000 A 
ATOM   1339  C6  C   B  22     -21.118 -15.843  21.025  0.00  0.00    +0.000 A 
ATOM   1340  H   C   B  22     -18.308 -14.608  17.906  0.00  0.00    +0.000 HD
ATOM   1341  H   C   B  22     -18.662 -16.271  18.028  0.00  0.00    +0.000 HD
ENDBRANCH13311332
BRANCH13301342
ATOM   1342  O2' C   B  22     -24.019 -12.723  22.995  0.00  0.00    +0.000 OA
ATOM   1343  H   C   B  22     -24.043 -13.120  23.880  0.00  0.00    +0.000 HD
ENDBRANCH13301342
BRANCH13271344
ATOM   1344  C5' C   B  22     -24.061 -17.132  23.384  0.00  0.00    +0.000 C 
BRANCH13441345
ATOM   1345  O5' C   B  22     -23.486 -17.784  22.258  0.00  0.00    +0.000 OA
BRANCH13451346
ATOM   1346  P   C   B  22     -23.286 -19.363  22.240  0.00  0.00    +0.000 P 
ATOM   1347  OP2 C   B  22     -22.604 -19.724  20.968  0.00  0.00    +0.000 OA
BRANCH13461348
ATOM   1348  OP1 C   B  22     -24.583 -19.998  22.587  0.00  0.00    +0.000 OA
ATOM   1349  H   C   B  22     -25.217 -19.851  21.868  0.00  0.00    +0.000 HD
ENDBRANCH13461348
BRANCH13461350
ATOM   1350  O3' A   B  21     -22.277 -19.622  23.434  0.00  0.00    +0.000 OA
BRANCH13501353
ATOM   1351  C4' A   B  21     -19.988 -20.219  24.050  0.00  0.00    +0.000 C 
ATOM   1352  O4' A   B  21     -18.764 -19.457  24.213  0.00  0.00    +0.000 OA
ATOM   1353  C3' A   B  21     -20.907 -19.272  23.304  0.00  0.00    +0.000 C 
ATOM   1354  C2' A   B  21     -20.565 -17.935  23.944  0.00  0.00    +0.000 C 
ATOM   1355  C1' A   B  21     -19.051 -18.075  24.128  0.00  0.00    +0.000 C 
BRANCH13551356
ATOM   1356  N9  A   B  21     -18.308 -17.503  22.996  0.00  0.00    +0.000 N 
ATOM   1357  C8  A   B  21     -17.701 -18.158  21.955  0.00  0.00    +0.000 A 
ATOM   1358  N7  A   B  21     -17.114 -17.355  21.098  0.00  0.00    +0.000 NA
ATOM   1359  C5  A   B  21     -17.355 -16.086  21.605  0.00  0.00    +0.000 A 
ATOM   1360  C6  A   B  21     -16.999 -14.804  21.160  0.00  0.00    +0.000 A 
ATOM   1361  N1  A   B  21     -17.399 -13.749  21.899  0.00  0.00    +0.000 NA
ATOM   1362  C2  A   B  21     -18.107 -13.976  23.010  0.00  0.00    +0.000 A 
ATOM   1363  N3  A   B  21     -18.501 -15.135  23.532  0.00  0.00    +0.000 NA
ATOM   1364  C4  A   B  21     -18.088 -16.163  22.773  0.00  0.00    +0.000 A 
BRANCH13601365
ATOM   1365  N6  A   B  21     -16.294 -14.577  20.044  0.00  0.00    +0.000 N 
ATOM   1366  H   A   B  21     -15.992 -15.333  19.490  0.00  0.00    +0.000 HD
ATOM   1367  H   A   B  21     -16.078 -13.654  19.778  0.00  0.00    +0.000 HD
ENDBRANCH13601365
ENDBRANCH13551356
BRANCH13541368
ATOM   1368  O2' A   B  21     -21.175 -17.793  25.217  0.00  0.00    +0.000 OA
ATOM   1369  H   A   B  21     -20.914 -18.535  25.785  0.00  0.00    +0.000 HD
ENDBRANCH13541368
BRANCH13511370
ATOM   1370  C5' A   B  21     -19.688 -21.527  23.358  0.00  0.00    +0.000 C 
BRANCH13701371
ATOM   1371  O5' A   B  21     -19.067 -21.314  22.096  0.00  0.00    +0.000 OA
BRANCH13711372
ATOM   1372  P   A   B  21     -18.352 -22.518  21.330  0.00  0.00    +0.000 P 
ATOM   1373  OP2 A   B  21     -17.773 -21.979  20.073  0.00  0.00    +0.000 OA
BRANCH13721374
ATOM   1374  OP1 A   B  21     -19.300 -23.660  21.277  0.00  0.00    +0.000 OA
ATOM   1375  H   A   B  21     -20.039 -23.440  20.688  0.00  0.00    +0.000 HD
ENDBRANCH13721374
BRANCH13721376
ATOM   1376  O3' A   B  20     -17.158 -22.923  22.307  0.00  0.00    +0.000 OA
BRANCH13761379
ATOM   1377  C4' A   B  20     -14.743 -22.851  22.706  0.00  0.00    +0.000 C 
ATOM   1378  O4' A   B  20     -13.850 -21.851  23.262  0.00  0.00    +0.000 OA
ATOM   1379  C3' A   B  20     -16.016 -22.082  22.417  0.00  0.00    +0.000 C 
ATOM   1380  C2' A   B  20     -16.082 -21.130  23.602  0.00  0.00    +0.000 C 
ATOM   1381  C1' A   B  20     -14.607 -20.773  23.775  0.00  0.00    +0.000 C 
BRANCH13811382
ATOM   1382  N9  A   B  20     -14.250 -19.553  23.034  0.00  0.00    +0.000 N 
ATOM   1383  C8  A   B  20     -13.599 -19.448  21.830  0.00  0.00    +0.000 A 
ATOM   1384  N7  A   B  20     -13.430 -18.209  21.429  0.00  0.00    +0.000 NA
ATOM   1385  C5  A   B  20     -14.011 -17.448  22.434  0.00  0.00    +0.000 A 
ATOM   1386  C6  A   B  20     -14.162 -16.065  22.607  0.00  0.00    +0.000 A 
ATOM   1387  N1  A   B  20     -14.792 -15.634  23.722  0.00  0.00    +0.000 NA
ATOM   1388  C2  A   B  20     -15.235 -16.540  24.599  0.00  0.00    +0.000 A 
ATOM   1389  N3  A   B  20     -15.150 -17.869  24.548  0.00  0.00    +0.000 NA
ATOM   1390  C4  A   B  20     -14.520 -18.263  23.427  0.00  0.00    +0.000 A 
BRANCH13861391
ATOM   1391  N6  A   B  20     -13.724 -15.156  21.726  0.00  0.00    +0.000 N 
ATOM   1392  H   A   B  20     -13.262 -15.447  20.907  0.00  0.00    +0.000 HD
ATOM   1393  H   A   B  20     -13.864 -14.197  21.898  0.00  0.00    +0.000 HD
ENDBRANCH13861391
ENDBRANCH13811382
BRANCH13801394
ATOM   1394  O2' A   B  20     -16.542 -21.782  24.773  0.00  0.00    +0.000 OA
ATOM   1395  H   A   B  20     -15.973 -22.544  24.963  0.00  0.00    +0.000 HD
ENDBRANCH13801394
BRANCH13771396
ATOM   1396  C5' A   B  20     -14.094 -23.517  21.518  0.00  0.00    +0.000 C 
BRANCH13961397
ATOM   1397  O5' A   B  20     -13.784 -22.567  20.501  0.00  0.00    +0.000 OA
BRANCH13971398
ATOM   1398  P   A   B  20     -12.823 -22.959  19.291  0.00  0.00    +0.000 P 
ATOM   1399  OP2 A   B  20     -12.656 -21.757  18.430  0.00  0.00    +0.000 OA
BRANCH13981400
ATOM   1400  OP1 A   B  20     -13.315 -24.227  18.701  0.00  0.00    +0.000 OA
ATOM   1401  H   A   B  20     -12.742 -24.483  17.961  0.00  0.00    +0.000 HD
ENDBRANCH13981400
BRANCH13981402
ATOM   1402  O3' A   B  19     -11.424 -23.269  20.016  0.00  0.00    +0.000 OA
BRANCH14021405
ATOM   1403  C4' A   B  19      -9.124 -22.533  20.401  0.00  0.00    +0.000 C 
ATOM   1404  O4' A   B  19      -8.514 -21.594  21.323  0.00  0.00    +0.000 OA
ATOM   1405  C3' A   B  19     -10.600 -22.197  20.457  0.00  0.00    +0.000 C 
ATOM   1406  C2' A   B  19     -10.792 -21.854  21.928  0.00  0.00    +0.000 C 
ATOM   1407  C1' A   B  19      -9.487 -21.119  22.233  0.00  0.00    +0.000 C 
BRANCH14071408
ATOM   1408  N9  A   B  19      -9.616 -19.664  22.063  0.00  0.00    +0.000 N 
ATOM   1409  C8  A   B  19      -9.141 -18.884  21.041  0.00  0.00    +0.000 A 
ATOM   1410  N7  A   B  19      -9.420 -17.608  21.178  0.00  0.00    +0.000 NA
ATOM   1411  C5  A   B  19     -10.127 -17.544  22.370  0.00  0.00    +0.000 A 
ATOM   1412  C6  A   B  19     -10.705 -16.478  23.076  0.00  0.00    +0.000 A 
ATOM   1413  N6  A   B  19     -10.660 -15.204  22.657  0.00  0.00    +0.000 N 
ATOM   1414  N1  A   B  19     -11.339 -16.757  24.234  0.00  0.00    +0.000 NA
ATOM   1415  C2  A   B  19     -11.386 -18.027  24.653  0.00  0.00    +0.000 A 
ATOM   1416  N3  A   B  19     -10.880 -19.119  24.079  0.00  0.00    +0.000 NA
ATOM   1417  C4  A   B  19     -10.255 -18.804  22.927  0.00  0.00    +0.000 A 
ATOM   1418  H   A   B  19     -10.202 -14.979  21.815  0.00  0.00    +0.000 HD
ATOM   1419  H   A   B  19     -11.084 -14.495  23.192  0.00  0.00    +0.000 HD
ENDBRANCH14071408
BRANCH14061420
ATOM   1420  O2' A   B  19     -10.869 -23.019  22.733  0.00  0.00    +0.000 OA
ATOM   1421  H   A   B  19     -10.075 -23.559  22.597  0.00  0.00    +0.000 HD
ENDBRANCH14061420
BRANCH14031422
ATOM   1422  C5' A   B  19      -8.480 -22.413  19.043  0.00  0.00    +0.000 C 
BRANCH14221423
ATOM   1423  O5' A   B  19      -8.676 -21.112  18.491  0.00  0.00    +0.000 OA
BRANCH14231424
ATOM   1424  P   A   B  19      -8.012 -20.708  17.097  0.00  0.00    +0.000 P 
ATOM   1425  OP1 A   B  19      -8.328 -21.769  16.112  0.00  0.00    +0.000 OA
BRANCH14241426
ATOM   1426  OP2 A   B  19      -8.375 -19.294  16.807  0.00  0.00    +0.000 OA
ATOM   1427  H   A   B  19      -7.981 -19.026  15.962  0.00  0.00    +0.000 HD
ENDBRANCH14241426
BRANCH14241428
ATOM   1428  O3' G   B  18      -6.435 -20.789  17.409  0.00  0.00    +0.000 OA
BRANCH14281431
ATOM   1429  C4' G   B  18      -4.381 -19.498  17.738  0.00  0.00    +0.000 C 
ATOM   1430  O4' G   B  18      -3.767 -18.879  18.898  0.00  0.00    +0.000 OA
ATOM   1431  C3' G   B  18      -5.808 -19.766  18.177  0.00  0.00    +0.000 C 
ATOM   1432  C2' G   B  18      -5.634 -20.126  19.644  0.00  0.00    +0.000 C 
ATOM   1433  C1' G   B  18      -4.526 -19.157  20.051  0.00  0.00    +0.000 C 
BRANCH14331434
ATOM   1434  N9  G   B  18      -5.070 -17.890  20.565  0.00  0.00    +0.000 N 
ATOM   1435  C8  G   B  18      -4.958 -16.644  19.997  0.00  0.00    +0.000 A 
ATOM   1436  N7  G   B  18      -5.556 -15.713  20.687  0.00  0.00    +0.000 NA
ATOM   1437  C5  G   B  18      -6.090 -16.380  21.779  0.00  0.00    +0.000 A 
ATOM   1438  C6  G   B  18      -6.842 -15.895  22.878  0.00  0.00    +0.000 A 
ATOM   1439  O6  G   B  18      -7.203 -14.734  23.112  0.00  0.00    +0.000 OA
ATOM   1440  N1  G   B  18      -7.187 -16.914  23.760  0.00  0.00    +0.000 NA
ATOM   1441  C2  G   B  18      -6.851 -18.233  23.605  0.00  0.00    +0.000 A 
ATOM   1442  N2  G   B  18      -7.275 -19.081  24.564  0.00  0.00    +0.000 N 
ATOM   1443  N3  G   B  18      -6.144 -18.703  22.589  0.00  0.00    +0.000 N 
ATOM   1444  C4  G   B  18      -5.799 -17.724  21.720  0.00  0.00    +0.000 A 
ATOM   1445  H   G   B  18      -7.062 -20.040  24.502  0.00  0.00    +0.000 HD
ATOM   1446  H   G   B  18      -7.798 -18.741  25.326  0.00  0.00    +0.000 HD
ATOM   1447  H   G   B  18      -5.899 -19.650  22.479  0.00  0.00    +0.000 HD
ENDBRANCH14331434
BRANCH14321448
ATOM   1448  O2' G   B  18      -5.169 -21.455  19.802  0.00  0.00    +0.000 OA
ATOM   1449  H   G   B  18      -4.344 -21.570  19.306  0.00  0.00    +0.000 HD
ENDBRANCH14321448
BRANCH14291450
ATOM   1450  C5' G   B  18      -4.216 -18.615  16.530  0.00  0.00    +0.000 C 
BRANCH14501451
ATOM   1451  O5' G   B  18      -3.268 -17.577  16.763  0.00  0.00    +0.000 OA
BRANCH14511452
ATOM   1452  P   G   B  18      -2.285 -17.085  15.610  0.00  0.00    +0.000 P 
ATOM   1453  OP1 G   B  18      -2.823 -17.543  14.299  0.00  0.00    +0.000 OA
BRANCH14521454
ATOM   1454  OP2 G   B  18      -2.038 -15.644  15.827  0.00  0.00    +0.000 OA
ATOM   1455  H   G   B  18      -1.441 -15.311  15.139  0.00  0.00    +0.000 HD
ENDBRANCH14521454
BRANCH14521456
ATOM   1456  O3' C   B  17      -0.909 -17.885  15.889  0.00  0.00    +0.000 OA
BRANCH14561459
ATOM   1457  C4' C   B  17       0.929 -17.761  17.504  0.00  0.00    +0.000 C 
ATOM   1458  O4' C   B  17       1.329 -18.589  18.623  0.00  0.00    +0.000 OA
ATOM   1459  C3' C   B  17      -0.496 -18.195  17.212  0.00  0.00    +0.000 C 
ATOM   1460  C2' C   B  17      -0.434 -19.693  17.490  0.00  0.00    +0.000 C 
ATOM   1461  C1' C   B  17       0.519 -19.743  18.682  0.00  0.00    +0.000 C 
BRANCH14611462
ATOM   1462  N1  C   B  17      -0.193 -19.755  19.980  0.00  0.00    +0.000 N 
ATOM   1463  C2  C   B  17      -0.731 -20.960  20.440  0.00  0.00    +0.000 A 
ATOM   1464  O2  C   B  17      -0.604 -21.984  19.751  0.00  0.00    +0.000 OA
ATOM   1465  N3  C   B  17      -1.386 -20.984  21.632  0.00  0.00    +0.000 NA
ATOM   1466  C4  C   B  17      -1.507 -19.865  22.352  0.00  0.00    +0.000 A 
ATOM   1467  N4  C   B  17      -2.159 -19.935  23.517  0.00  0.00    +0.000 N 
ATOM   1468  C5  C   B  17      -0.968 -18.625  21.906  0.00  0.00    +0.000 A 
ATOM   1469  C6  C   B  17      -0.326 -18.616  20.727  0.00  0.00    +0.000 A 
ATOM   1470  H   C   B  17      -2.530 -20.794  23.822  0.00  0.00    +0.000 HD
ATOM   1471  H   C   B  17      -2.268 -19.127  24.070  0.00  0.00    +0.000 HD
ENDBRANCH14611462
BRANCH14601472
ATOM   1472  O2' C   B  17       0.138 -20.401  16.405  0.00  0.00    +0.000 OA
ATOM   1473  H   C   B  17       1.018 -20.042  16.213  0.00  0.00    +0.000 HD
ENDBRANCH14601472
BRANCH14571474
ATOM   1474  C5' C   B  17       1.111 -16.306  17.861  0.00  0.00    +0.000 C 
BRANCH14741475
ATOM   1475  O5' C   B  17       0.286 -15.935  18.956  0.00  0.00    +0.000 OA
BRANCH14751476
ATOM   1476  P   C   B  17       0.470 -14.534  19.696  0.00  0.00    +0.000 P 
ATOM   1477  OP1 C   B  17       0.526 -13.470  18.662  0.00  0.00    +0.000 OA
BRANCH14761478
ATOM   1478  OP2 C   B  17      -0.532 -14.448  20.786  0.00  0.00    +0.000 OA
ATOM   1479  H   C   B  17      -1.420 -14.374  20.403  0.00  0.00    +0.000 HD
ENDBRANCH14761478
BRANCH14761480
ATOM   1480  O3' C   B  16       1.929 -14.656  20.334  0.00  0.00    +0.000 OA
BRANCH14801483
ATOM   1481  C4' C   B  16       2.842 -14.796  22.593  0.00  0.00    +0.000 C 
ATOM   1482  O4' C   B  16       3.470 -15.864  23.350  0.00  0.00    +0.000 OA
ATOM   1483  C3' C   B  16       2.158 -15.515  21.443  0.00  0.00    +0.000 C 
ATOM   1484  C2' C   B  16       3.135 -16.645  21.134  0.00  0.00    +0.000 C 
ATOM   1485  C1' C   B  16       3.641 -16.999  22.538  0.00  0.00    +0.000 C 
BRANCH14851486
ATOM   1486  N1  C   B  16       2.904 -18.126  23.150  0.00  0.00    +0.000 N 
ATOM   1487  C2  C   B  16       3.158 -19.432  22.713  0.00  0.00    +0.000 A 
ATOM   1488  O2  C   B  16       3.989 -19.622  21.812  0.00  0.00    +0.000 OA
ATOM   1489  N3  C   B  16       2.489 -20.468  23.283  0.00  0.00    +0.000 NA
ATOM   1490  C4  C   B  16       1.596 -20.235  24.251  0.00  0.00    +0.000 A 
ATOM   1491  N4  C   B  16       0.961 -21.283  24.785  0.00  0.00    +0.000 N 
ATOM   1492  C5  C   B  16       1.321 -18.920  24.717  0.00  0.00    +0.000 A 
ATOM   1493  C6  C   B  16       1.990 -17.904  24.144  0.00  0.00    +0.000 A 
ATOM   1494  H   C   B  16       1.153 -22.192  24.461  0.00  0.00    +0.000 HD
ATOM   1495  H   C   B  16       0.301 -21.145  25.503  0.00  0.00    +0.000 HD
ENDBRANCH14851486
BRANCH14841496
ATOM   1496  O2' C   B  16       4.224 -16.205  20.342  0.00  0.00    +0.000 OA
ATOM   1497  H   C   B  16       4.674 -15.471  20.790  0.00  0.00    +0.000 HD
ENDBRANCH14841496
BRANCH14811498
ATOM   1498  C5' C   B  16       1.916 -14.002  23.483  0.00  0.00    +0.000 C 
BRANCH14981499
ATOM   1499  O5' C   B  16       2.350 -14.055  24.830  0.00  0.00    +0.000 OA
BRANCH14991500
ATOM   1500  P   C   B  16       1.292 -14.036  26.025  0.00  0.00    +0.000 P 
ATOM   1501  OP2 C   B  16       0.104 -14.814  25.605  0.00  0.00    +0.000 OA
BRANCH15001502
ATOM   1502  OP1 C   B  16       1.136 -12.630  26.477  0.00  0.00    +0.000 OA
ATOM   1503  H   C   B  16       0.671 -12.121  25.795  0.00  0.00    +0.000 HD
ENDBRANCH15001502
BRANCH15001504
ATOM   1504  O3' U   B  15       2.062 -14.860  27.164  0.00  0.00    +0.000 OA
BRANCH15041507
ATOM   1505  C4' U   B  15       0.761 -16.160  28.720  0.00  0.00    +0.000 C 
ATOM   1506  O4' U   B  15       1.620 -16.627  29.799  0.00  0.00    +0.000 OA
ATOM   1507  C3' U   B  15       1.611 -16.183  27.450  0.00  0.00    +0.000 C 
ATOM   1508  C2' U   B  15       2.808 -17.057  27.829  0.00  0.00    +0.000 C 
ATOM   1509  C1' U   B  15       2.937 -16.796  29.320  0.00  0.00    +0.000 C 
BRANCH15091510
ATOM   1510  N1  U   B  15       3.607 -17.877  30.094  0.00  0.00    +0.000 N 
ATOM   1511  C2  U   B  15       3.306 -19.211  29.843  0.00  0.00    +0.000 A 
ATOM   1512  O2  U   B  15       2.494 -19.594  28.997  0.00  0.00    +0.000 OA
ATOM   1513  N3  U   B  15       3.985 -20.121  30.624  0.00  0.00    +0.000 N 
ATOM   1514  C4  U   B  15       4.911 -19.836  31.612  0.00  0.00    +0.000 A 
ATOM   1515  O4  U   B  15       5.426 -20.772  32.229  0.00  0.00    +0.000 OA
ATOM   1516  C5  U   B  15       5.171 -18.447  31.810  0.00  0.00    +0.000 A 
ATOM   1517  C6  U   B  15       4.524 -17.529  31.067  0.00  0.00    +0.000 A 
ATOM   1518  H   U   B  15       3.791 -21.073  30.462  0.00  0.00    +0.000 HD
ENDBRANCH15091510
BRANCH15081519
ATOM   1519  O2' U   B  15       4.010 -16.749  27.162  0.00  0.00    +0.000 OA
ATOM   1520  H   U   B  15       4.256 -15.829  27.348  0.00  0.00    +0.000 HD
ENDBRANCH15081519
BRANCH15051521
ATOM   1521  C5' U   B  15      -0.497 -17.003  28.669  0.00  0.00    +0.000 C 
BRANCH15211522
ATOM   1522  O5' U   B  15      -0.215 -18.357  28.956  0.00  0.00    +0.000 OA
BRANCH15221523
ATOM   1523  P   U   B  15      -1.160 -19.193  29.941  0.00  0.00    +0.000 P 
ATOM   1524  OP1 U   B  15      -0.396 -20.348  30.449  0.00  0.00    +0.000 OA
BRANCH15231525
ATOM   1525  OP2 U   B  15      -1.779 -18.251  30.898  0.00  0.00    +0.000 OA
ATOM   1526  H   U   B  15      -2.242 -17.552  30.410  0.00  0.00    +0.000 HD
ENDBRANCH15231525
BRANCH15231527
ATOM   1527  O3' A   B  14      -2.324 -19.720  28.994  0.00  0.00    +0.000 OA
BRANCH15271530
ATOM   1528  C4' A   B  14      -4.763 -19.654  28.880  0.00  0.00    +0.000 C 
ATOM   1529  O4' A   B  14      -5.701 -18.951  28.026  0.00  0.00    +0.000 OA
ATOM   1530  C3' A   B  14      -3.449 -18.923  28.664  0.00  0.00    +0.000 C 
ATOM   1531  C2' A   B  14      -3.516 -18.563  27.186  0.00  0.00    +0.000 C 
ATOM   1532  C1' A   B  14      -5.000 -18.237  27.026  0.00  0.00    +0.000 C 
BRANCH15321533
ATOM   1533  N9  A   B  14      -5.277 -16.803  27.187  0.00  0.00    +0.000 N 
ATOM   1534  C8  A   B  14      -5.916 -16.181  28.231  0.00  0.00    +0.000 A 
ATOM   1535  N7  A   B  14      -6.017 -14.881  28.091  0.00  0.00    +0.000 NA
ATOM   1536  C5  A   B  14      -5.404 -14.629  26.870  0.00  0.00    +0.000 A 
ATOM   1537  C6  A   B  14      -5.182 -13.447  26.149  0.00  0.00    +0.000 A 
ATOM   1538  N1  A   B  14      -4.543 -13.541  24.966  0.00  0.00    +0.000 NA
ATOM   1539  C2  A   B  14      -4.154 -14.746  24.541  0.00  0.00    +0.000 A 
ATOM   1540  N3  A   B  14      -4.304 -15.931  25.127  0.00  0.00    +0.000 NA
ATOM   1541  C4  A   B  14      -4.946 -15.802  26.302  0.00  0.00    +0.000 A 
BRANCH15371542
ATOM   1542  N6  A   B  14      -5.570 -12.234  26.578  0.00  0.00    +0.000 N 
ATOM   1543  H   A   B  14      -5.388 -11.437  26.030  0.00  0.00    +0.000 HD
ATOM   1544  H   A   B  14      -6.036 -12.143  27.440  0.00  0.00    +0.000 HD
ENDBRANCH15371542
ENDBRANCH15321533
BRANCH15311545
ATOM   1545  O2' A   B  14      -3.185 -19.658  26.358  0.00  0.00    +0.000 OA
ATOM   1546  H   A   B  14      -3.770 -20.405  26.560  0.00  0.00    +0.000 HD
ENDBRANCH15311545
BRANCH15281547
ATOM   1547  C5' A   B  14      -5.282 -19.671  30.301  0.00  0.00    +0.000 C 
BRANCH15471548
ATOM   1548  O5' A   B  14      -5.546 -18.354  30.759  0.00  0.00    +0.000 OA
BRANCH15481549
ATOM   1549  P   A   B  14      -6.271 -18.102  32.164  0.00  0.00    +0.000 P 
ATOM   1550  OP2 A   B  14      -6.325 -16.636  32.383  0.00  0.00    +0.000 OA
BRANCH15491551
ATOM   1551  OP1 A   B  14      -5.643 -18.973  33.179  0.00  0.00    +0.000 OA
ATOM   1552  H   A   B  14      -5.690 -19.897  32.886  0.00  0.00    +0.000 HD
ENDBRANCH15491551
BRANCH15491553
ATOM   1553  O3' C   B  13      -7.762 -18.603  31.905  0.00  0.00    +0.000 OA
BRANCH15531556
ATOM   1554  C4' C   B  13     -10.056 -17.981  31.306  0.00  0.00    +0.000 C 
ATOM   1555  O4' C   B  13     -10.725 -17.739  30.038  0.00  0.00    +0.000 OA
ATOM   1556  C3' C   B  13      -8.587 -17.971  30.939  0.00  0.00    +0.000 C 
ATOM   1557  C2' C   B  13      -8.598 -18.687  29.597  0.00  0.00    +0.000 C 
ATOM   1558  C1' C   B  13      -9.878 -18.130  28.974  0.00  0.00    +0.000 C 
BRANCH15581559
ATOM   1559  N1  C   B  13      -9.607 -16.961  28.103  0.00  0.00    +0.000 N 
ATOM   1560  C2  C   B  13      -9.055 -17.187  26.833  0.00  0.00    +0.000 A 
ATOM   1561  O2  C   B  13      -8.816 -18.349  26.474  0.00  0.00    +0.000 OA
ATOM   1562  N3  C   B  13      -8.792 -16.129  26.024  0.00  0.00    +0.000 NA
ATOM   1563  C4  C   B  13      -9.061 -14.890  26.439  0.00  0.00    +0.000 A 
ATOM   1564  N4  C   B  13      -8.786 -13.881  25.609  0.00  0.00    +0.000 N 
ATOM   1565  C5  C   B  13      -9.618 -14.630  27.725  0.00  0.00    +0.000 A 
ATOM   1566  C6  C   B  13      -9.873 -15.684  28.516  0.00  0.00    +0.000 A 
ATOM   1567  H   C   B  13      -8.401 -14.065  24.722  0.00  0.00    +0.000 HD
ATOM   1568  H   C   B  13      -8.968 -12.953  25.884  0.00  0.00    +0.000 HD
ENDBRANCH15581559
BRANCH15571569
ATOM   1569  O2' C   B  13      -8.725 -20.085  29.751  0.00  0.00    +0.000 OA
ATOM   1570  H   C   B  13      -9.525 -20.283  30.262  0.00  0.00    +0.000 HD
ENDBRANCH15571569
BRANCH15541571
ATOM   1571  C5' C   B  13     -10.500 -16.964  32.329  0.00  0.00    +0.000 C 
BRANCH15711572
ATOM   1572  O5' C   B  13     -10.250 -15.633  31.888  0.00  0.00    +0.000 OA
BRANCH15721573
ATOM   1573  P   C   B  13     -10.900 -14.387  32.640  0.00  0.00    +0.000 P 
ATOM   1574  OP2 C   B  13     -10.468 -13.154  31.938  0.00  0.00    +0.000 OA
BRANCH15731575
ATOM   1575  OP1 C   B  13     -10.646 -14.533  34.094  0.00  0.00    +0.000 OA
ATOM   1576  H   C   B  13      -9.699 -14.418  34.270  0.00  0.00    +0.000 HD
ENDBRANCH15731575
BRANCH15731577
ATOM   1577  O3' U   B  12     -12.470 -14.583  32.391  0.00  0.00    +0.000 OA
BRANCH15771580
ATOM   1578  C4' U   B  12     -14.443 -13.797  31.180  0.00  0.00    +0.000 C 
ATOM   1579  O4' U   B  12     -14.966 -14.046  29.846  0.00  0.00    +0.000 OA
ATOM   1580  C3' U   B  12     -13.024 -14.318  31.113  0.00  0.00    +0.000 C 
ATOM   1581  C2' U   B  12     -13.185 -15.562  30.249  0.00  0.00    +0.000 C 
ATOM   1582  C1' U   B  12     -14.223 -15.080  29.230  0.00  0.00    +0.000 C 
BRANCH15821583
ATOM   1583  N1  U   B  12     -13.591 -14.553  27.998  0.00  0.00    +0.000 N 
ATOM   1584  C2  U   B  12     -13.151 -15.473  27.059  0.00  0.00    +0.000 A 
ATOM   1585  O2  U   B  12     -13.265 -16.678  27.209  0.00  0.00    +0.000 OA
ATOM   1586  N3  U   B  12     -12.568 -14.934  25.936  0.00  0.00    +0.000 N 
ATOM   1587  C4  U   B  12     -12.386 -13.595  25.662  0.00  0.00    +0.000 A 
ATOM   1588  O4  U   B  12     -11.843 -13.260  24.607  0.00  0.00    +0.000 OA
ATOM   1589  C5  U   B  12     -12.862 -12.705  26.678  0.00  0.00    +0.000 A 
ATOM   1590  C6  U   B  12     -13.434 -13.201  27.784  0.00  0.00    +0.000 A 
ATOM   1591  H   U   B  12     -12.247 -15.571  25.257  0.00  0.00    +0.000 HD
ENDBRANCH15821583
BRANCH15811592
ATOM   1592  O2' U   B  12     -13.725 -16.643  30.984  0.00  0.00    +0.000 OA
ATOM   1593  H   U   B  12     -14.569 -16.375  31.380  0.00  0.00    +0.000 HD
ENDBRANCH15811592
BRANCH15781594
ATOM   1594  C5' U   B  12     -14.597 -12.339  31.529  0.00  0.00    +0.000 C 
BRANCH15941595
ATOM   1595  O5' U   B  12     -13.837 -11.504  30.659  0.00  0.00    +0.000 OA
BRANCH15951596
ATOM   1596  P   U   B  12     -14.081  -9.937  30.600  0.00  0.00    +0.000 P 
ATOM   1597  OP2 U   B  12     -13.220  -9.369  29.539  0.00  0.00    +0.000 OA
BRANCH15961598
ATOM   1598  OP1 U   B  12     -13.996  -9.404  31.985  0.00  0.00    +0.000 OA
ATOM   1599  H   U   B  12     -14.143  -8.445  31.972  0.00  0.00    +0.000 HD
ENDBRANCH15961598
BRANCH15961600
ATOM   1600  O3' U   B  11     -15.593  -9.838  30.118  0.00  0.00    +0.000 OA
BRANCH16001603
ATOM   1601  C4' U   B  11     -17.056  -9.159  28.294  0.00  0.00    +0.000 C 
ATOM   1602  O4' U   B  11     -17.593  -9.840  27.129  0.00  0.00    +0.000 OA
ATOM   1603  C3' U   B  11     -15.922 -10.054  28.753  0.00  0.00    +0.000 C 
ATOM   1604  C2' U   B  11     -16.473 -11.444  28.474  0.00  0.00    +0.000 C 
ATOM   1605  C1' U   B  11     -17.233 -11.206  27.163  0.00  0.00    +0.000 C 
BRANCH16051606
ATOM   1606  N1  U   B  11     -16.413 -11.512  25.968  0.00  0.00    +0.000 N 
ATOM   1607  C2  U   B  11     -16.248 -12.840  25.620  0.00  0.00    +0.000 A 
ATOM   1608  O2  U   B  11     -16.735 -13.761  26.251  0.00  0.00    +0.000 OA
ATOM   1609  N3  U   B  11     -15.480 -13.061  24.500  0.00  0.00    +0.000 N 
ATOM   1610  C4  U   B  11     -14.874 -12.106  23.709  0.00  0.00    +0.000 A 
ATOM   1611  O4  U   B  11     -14.217 -12.454  22.734  0.00  0.00    +0.000 OA
ATOM   1612  C5  U   B  11     -15.093 -10.757  24.136  0.00  0.00    +0.000 A 
ATOM   1613  C6  U   B  11     -15.838 -10.511  25.220  0.00  0.00    +0.000 A 
ATOM   1614  H   U   B  11     -15.349 -14.000  24.235  0.00  0.00    +0.000 HD
ENDBRANCH16051606
BRANCH16041615
ATOM   1615  O2' U   B  11     -17.390 -11.853  29.471  0.00  0.00    +0.000 OA
ATOM   1616  H   U   B  11     -18.103 -11.199  29.543  0.00  0.00    +0.000 HD
ENDBRANCH16041615
BRANCH16011617
ATOM   1617  C5' U   B  11     -16.658  -7.753  27.929  0.00  0.00    +0.000 C 
BRANCH16171618
ATOM   1618  O5' U   B  11     -17.786  -6.992  27.541  0.00  0.00    +0.000 OA
BRANCH16181619
ATOM   1619  P   U   B  11     -17.643  -5.548  26.906  0.00  0.00    +0.000 P 
ATOM   1620  OP2 U   B  11     -16.244  -5.361  26.454  0.00  0.00    +0.000 OA
BRANCH16191621
ATOM   1621  OP1 U   B  11     -18.243  -4.572  27.857  0.00  0.00    +0.000 OA
ATOM   1622  H   U   B  11     -18.169  -3.677  27.491  0.00  0.00    +0.000 HD
ENDBRANCH16191621
BRANCH16191623
ATOM   1623  O3' U   B  10     -18.575  -5.592  25.630  0.00  0.00    +0.000 OA
BRANCH16231626
ATOM   1624  C4' U   B  10     -19.066  -5.762  23.285  0.00  0.00    +0.000 C 
ATOM   1625  O4' U   B  10     -18.938  -6.828  22.325  0.00  0.00    +0.000 OA
ATOM   1626  C3' U   B  10     -18.081  -6.111  24.392  0.00  0.00    +0.000 C 
ATOM   1627  C2' U   B  10     -18.047  -7.645  24.384  0.00  0.00    +0.000 C 
ATOM   1628  C1' U   B  10     -18.644  -8.028  23.008  0.00  0.00    +0.000 C 
BRANCH16281629
ATOM   1629  N1  U   B  10     -17.775  -8.873  22.176  0.00  0.00    +0.000 N 
ATOM   1630  C2  U   B  10     -17.895 -10.239  22.354  0.00  0.00    +0.000 A 
ATOM   1631  O2  U   B  10     -18.644 -10.737  23.173  0.00  0.00    +0.000 OA
ATOM   1632  N3  U   B  10     -17.090 -11.004  21.549  0.00  0.00    +0.000 N 
ATOM   1633  C4  U   B  10     -16.208 -10.553  20.594  0.00  0.00    +0.000 A 
ATOM   1634  O4  U   B  10     -15.559 -11.367  19.948  0.00  0.00    +0.000 OA
ATOM   1635  C5  U   B  10     -16.148  -9.123  20.469  0.00  0.00    +0.000 A 
ATOM   1636  C6  U   B  10     -16.919  -8.355  21.244  0.00  0.00    +0.000 A 
ATOM   1637  H   U   B  10     -17.150 -11.980  21.667  0.00  0.00    +0.000 HD
ENDBRANCH16281629
BRANCH16271638
ATOM   1638  O2' U   B  10     -18.857  -8.211  25.395  0.00  0.00    +0.000 OA
ATOM   1639  H   U   B  10     -19.773  -7.914  25.280  0.00  0.00    +0.000 HD
ENDBRANCH16271638
BRANCH16241640
ATOM   1640  C5' U   B  10     -18.819  -4.421  22.633  0.00  0.00    +0.000 C 
BRANCH16401641
ATOM   1641  O5' U   B  10     -19.643  -4.234  21.504  0.00  0.00    +0.000 OA
BRANCH16411642
ATOM   1642  P   U   B  10     -21.254  -4.185  21.613  0.00  0.00    +0.000 P 
ATOM   1643  OP1 U   B  10     -21.760  -5.572  21.378  0.00  0.00    +0.000 OA
BRANCH16421644
ATOM   1644  OP2 U   B  10     -21.610  -3.464  22.833  0.00  0.00    +0.000 OA
ATOM   1645  H   U   B  10     -22.576  -3.425  22.915  0.00  0.00    +0.000 HD
ENDBRANCH16421644
BRANCH16421646
ATOM   1646  O3' A   B   9     -21.626  -3.273  20.398  0.00  0.00    +0.000 OA
BRANCH16461649
ATOM   1647  C4' A   B   9     -21.825  -0.891  20.059  0.00  0.00    +0.000 C 
ATOM   1648  O4' A   B   9     -21.696  -0.434  18.686  0.00  0.00    +0.000 OA
ATOM   1649  C3' A   B   9     -20.885  -2.087  20.220  0.00  0.00    +0.000 C 
ATOM   1650  C2' A   B   9     -20.076  -2.140  18.934  0.00  0.00    +0.000 C 
ATOM   1651  C1' A   B   9     -20.925  -1.349  17.935  0.00  0.00    +0.000 C 
BRANCH16511652
ATOM   1652  N9  A   B   9     -20.117  -0.603  16.971  0.00  0.00    +0.000 N 
ATOM   1653  C8  A   B   9     -20.069   0.756  16.794  0.00  0.00    +0.000 A 
ATOM   1654  N7  A   B   9     -19.237   1.147  15.856  0.00  0.00    +0.000 NA
ATOM   1655  C5  A   B   9     -18.702  -0.042  15.382  0.00  0.00    +0.000 A 
ATOM   1656  C6  A   B   9     -17.760  -0.319  14.378  0.00  0.00    +0.000 A 
ATOM   1657  N1  A   B   9     -17.441  -1.605  14.140  0.00  0.00    +0.000 NA
ATOM   1658  C2  A   B   9     -18.042  -2.551  14.883  0.00  0.00    +0.000 A 
ATOM   1659  N3  A   B   9     -18.941  -2.415  15.853  0.00  0.00    +0.000 NA
ATOM   1660  C4  A   B   9     -19.235  -1.121  16.054  0.00  0.00    +0.000 A 
BRANCH16561661
ATOM   1661  N6  A   B   9     -17.164   0.629  13.642  0.00  0.00    +0.000 N 
ATOM   1662  H   A   B   9     -16.510   0.377  12.951  0.00  0.00    +0.000 HD
ATOM   1663  H   A   B   9     -17.380   1.578  13.793  0.00  0.00    +0.000 HD
ENDBRANCH16561661
ENDBRANCH16511652
BRANCH16501664
ATOM   1664  O2' A   B   9     -19.871  -3.462  18.456  0.00  0.00    +0.000 OA
ATOM   1665  H   A   B   9     -20.729  -3.885  18.298  0.00  0.00    +0.000 HD
ENDBRANCH16501664
BRANCH16471666
ATOM   1666  C5' A   B   9     -21.521   0.244  20.992  0.00  0.00    +0.000 C 
BRANCH16661667
ATOM   1667  O5' A   B   9     -21.154   1.426  20.318  0.00  0.00    +0.000 OA
BRANCH16671668
ATOM   1668  P   A   B   9     -19.752   2.120  20.546  0.00  0.00    +0.000 P 
ATOM   1669  OP2 A   B   9     -19.074   2.201  19.223  0.00  0.00    +0.000 OA
BRANCH16681670
ATOM   1670  OP1 A   B   9     -19.054   1.477  21.663  0.00  0.00    +0.000 OA
ATOM   1671  H   A   B   9     -18.794   0.578  21.408  0.00  0.00    +0.000 HD
ENDBRANCH16681670
BRANCH16681672
ATOM   1672  O3' U   B   8     -20.188   3.571  20.915  0.00  0.00    +0.000 OA
BRANCH16721675
ATOM   1673  C4' U   B   8     -22.150   4.818  21.566  0.00  0.00    +0.000 C 
ATOM   1674  O4' U   B   8     -22.497   5.583  22.741  0.00  0.00    +0.000 OA
ATOM   1675  C3' U   B   8     -21.018   3.924  22.015  0.00  0.00    +0.000 C 
ATOM   1676  C2' U   B   8     -20.276   4.773  23.047  0.00  0.00    +0.000 C 
ATOM   1677  C1' U   B   8     -21.396   5.655  23.615  0.00  0.00    +0.000 C 
BRANCH16771678
ATOM   1678  N1  U   B   8     -21.828   5.264  24.971  0.00  0.00    +0.000 N 
ATOM   1679  C2  U   B   8     -21.205   5.890  26.032  0.00  0.00    +0.000 A 
ATOM   1680  O2  U   B   8     -20.331   6.725  25.883  0.00  0.00    +0.000 OA
ATOM   1681  N3  U   B   8     -21.636   5.501  27.272  0.00  0.00    +0.000 N 
ATOM   1682  C4  U   B   8     -22.617   4.577  27.559  0.00  0.00    +0.000 A 
ATOM   1683  O4  U   B   8     -22.892   4.336  28.729  0.00  0.00    +0.000 OA
ATOM   1684  C5  U   B   8     -23.219   3.979  26.405  0.00  0.00    +0.000 A 
ATOM   1685  C6  U   B   8     -22.813   4.335  25.182  0.00  0.00    +0.000 A 
ATOM   1686  H   U   B   8     -21.197   5.928  28.043  0.00  0.00    +0.000 HD
ENDBRANCH16771678
BRANCH16761687
ATOM   1687  O2' U   B   8     -19.298   5.599  22.442  0.00  0.00    +0.000 OA
ATOM   1688  H   U   B   8     -19.719   6.162  21.774  0.00  0.00    +0.000 HD
ENDBRANCH16761687
BRANCH16731689
ATOM   1689  C5' U   B   8     -23.382   4.106  21.057  0.00  0.00    +0.000 C 
BRANCH16891690
ATOM   1690  O5' U   B   8     -23.989   3.344  22.093  0.00  0.00    +0.000 OA
BRANCH16901691
ATOM   1691  P   U   B   8     -25.493   2.824  21.963  0.00  0.00    +0.000 P 
ATOM   1692  OP1 U   B   8     -25.620   2.094  20.688  0.00  0.00    +0.000 OA
BRANCH16911693
ATOM   1693  OP2 U   B   8     -25.861   2.151  23.237  0.00  0.00    +0.000 OA
ATOM   1694  H   U   B   8     -26.773   1.827  23.180  0.00  0.00    +0.000 HD
ENDBRANCH16911693
BRANCH16911695
ATOM   1695  O3' C   B   7     -26.364   4.160  21.849  0.00  0.00    +0.000 OA
BRANCH16951698
ATOM   1696  C4' C   B   7     -27.978   5.549  23.035  0.00  0.00    +0.000 C 
ATOM   1697  O4' C   B   7     -27.862   6.721  23.884  0.00  0.00    +0.000 OA
ATOM   1698  C3' C   B   7     -26.572   4.994  22.981  0.00  0.00    +0.000 C 
ATOM   1699  C2' C   B   7     -25.727   6.260  22.952  0.00  0.00    +0.000 C 
ATOM   1700  C1' C   B   7     -26.526   7.181  23.880  0.00  0.00    +0.000 C 
BRANCH17001701
ATOM   1701  N1  C   B   7     -26.011   7.178  25.268  0.00  0.00    +0.000 N 
ATOM   1702  C2  C   B   7     -24.922   8.000  25.576  0.00  0.00    +0.000 A 
ATOM   1703  O2  C   B   7     -24.423   8.701  24.683  0.00  0.00    +0.000 OA
ATOM   1704  N3  C   B   7     -24.435   8.009  26.841  0.00  0.00    +0.000 NA
ATOM   1705  C4  C   B   7     -24.997   7.246  27.783  0.00  0.00    +0.000 A 
ATOM   1706  N4  C   B   7     -24.484   7.292  29.016  0.00  0.00    +0.000 N 
ATOM   1707  C5  C   B   7     -26.110   6.404  27.495  0.00  0.00    +0.000 A 
ATOM   1708  C6  C   B   7     -26.581   6.401  26.240  0.00  0.00    +0.000 A 
ATOM   1709  H   C   B   7     -23.715   7.876  29.208  0.00  0.00    +0.000 HD
ATOM   1710  H   C   B   7     -24.875   6.742  29.733  0.00  0.00    +0.000 HD
ENDBRANCH17001701
BRANCH16991711
ATOM   1711  O2' C   B   7     -25.686   6.833  21.665  0.00  0.00    +0.000 OA
ATOM   1712  H   C   B   7     -26.590   7.010  21.361  0.00  0.00    +0.000 HD
ENDBRANCH16991711
BRANCH16961713
ATOM   1713  C5' C   B   7     -29.030   4.624  23.591  0.00  0.00    +0.000 C 
BRANCH17131714
ATOM   1714  O5' C   B   7     -28.712   4.217  24.912  0.00  0.00    +0.000 OA
BRANCH17141715
ATOM   1715  P   C   B   7     -29.818   3.585  25.869  0.00  0.00    +0.000 P 
ATOM   1716  OP1 C   B   7     -30.454   2.452  25.157  0.00  0.00    +0.000 OA
BRANCH17151717
ATOM   1717  OP2 C   B   7     -29.201   3.365  27.201  0.00  0.00    +0.000 OA
ATOM   1718  H   C   B   7     -28.539   2.659  27.138  0.00  0.00    +0.000 HD
ENDBRANCH17151717
BRANCH17151719
ATOM   1719  O3' A   B   6     -30.909   4.756  26.000  0.00  0.00    +0.000 OA
BRANCH17191722
ATOM   1720  C4' A   B   6     -31.851   6.335  27.608  0.00  0.00    +0.000 C 
ATOM   1721  O4' A   B   6     -31.553   7.715  27.949  0.00  0.00    +0.000 OA
ATOM   1722  C3' A   B   6     -30.640   5.887  26.816  0.00  0.00    +0.000 C 
ATOM   1723  C2' A   B   6     -30.301   7.141  26.023  0.00  0.00    +0.000 C 
ATOM   1724  C1' A   B   6     -30.593   8.232  27.049  0.00  0.00    +0.000 C 
BRANCH17241725
ATOM   1725  N9  A   B   6     -29.398   8.618  27.809  0.00  0.00    +0.000 N 
ATOM   1726  C8  A   B   6     -29.039   8.232  29.075  0.00  0.00    +0.000 A 
ATOM   1727  N7  A   B   6     -27.906   8.751  29.485  0.00  0.00    +0.000 NA
ATOM   1728  C5  A   B   6     -27.491   9.532  28.411  0.00  0.00    +0.000 A 
ATOM   1729  C6  A   B   6     -26.361  10.345  28.213  0.00  0.00    +0.000 A 
ATOM   1730  N6  A   B   6     -25.394  10.509  29.129  0.00  0.00    +0.000 N 
ATOM   1731  N1  A   B   6     -26.249  10.984  27.032  0.00  0.00    +0.000 NA
ATOM   1732  C2  A   B   6     -27.214  10.820  26.119  0.00  0.00    +0.000 A 
ATOM   1733  N3  A   B   6     -28.321  10.086  26.190  0.00  0.00    +0.000 NA
ATOM   1734  C4  A   B   6     -28.398   9.460  27.377  0.00  0.00    +0.000 A 
ATOM   1735  H   A   B   6     -24.625  11.092  28.934  0.00  0.00    +0.000 HD
ATOM   1736  H   A   B   6     -25.454  10.046  29.996  0.00  0.00    +0.000 HD
ENDBRANCH17241725
BRANCH17231737
ATOM   1737  O2' A   B   6     -31.160   7.306  24.913  0.00  0.00    +0.000 OA
ATOM   1738  H   A   B   6     -32.081   7.320  25.216  0.00  0.00    +0.000 HD
ENDBRANCH17231737
BRANCH17201739
ATOM   1739  C5' A   B   6     -32.137   5.551  28.864  0.00  0.00    +0.000 C 
BRANCH17391740
ATOM   1740  O5' A   B   6     -30.997   5.508  29.711  0.00  0.00    +0.000 OA
BRANCH17401741
ATOM   1741  P   A   B   6     -31.116   4.995  31.214  0.00  0.00    +0.000 P 
ATOM   1742  OP1 A   B   6     -31.831   3.695  31.203  0.00  0.00    +0.000 OA
BRANCH17411743
ATOM   1743  OP2 A   B   6     -29.773   5.098  31.841  0.00  0.00    +0.000 OA
ATOM   1744  H   A   B   6     -29.180   4.440  31.445  0.00  0.00    +0.000 HD
ENDBRANCH17411743
BRANCH17411745
ATOM   1745  O3' U   B   5     -32.079   6.083  31.876  0.00  0.00    +0.000 OA
BRANCH17451748
ATOM   1746  C4' U   B   5     -32.164   7.922  33.475  0.00  0.00    +0.000 C 
ATOM   1747  O4' U   B   5     -31.958   9.355  33.368  0.00  0.00    +0.000 OA
ATOM   1748  C3' U   B   5     -31.583   7.377  32.194  0.00  0.00    +0.000 C 
ATOM   1749  C2' U   B   5     -31.987   8.445  31.182  0.00  0.00    +0.000 C 
ATOM   1750  C1' U   B   5     -31.814   9.716  32.010  0.00  0.00    +0.000 C 
BRANCH17501751
ATOM   1751  N1  U   B   5     -30.486  10.338  31.815  0.00  0.00    +0.000 N 
ATOM   1752  C2  U   B   5     -30.302  11.130  30.692  0.00  0.00    +0.000 A 
ATOM   1753  O2  U   B   5     -31.180  11.328  29.868  0.00  0.00    +0.000 OA
ATOM   1754  N3  U   B   5     -29.049  11.681  30.565  0.00  0.00    +0.000 N 
ATOM   1755  C4  U   B   5     -27.981  11.532  31.427  0.00  0.00    +0.000 A 
ATOM   1756  O4  U   B   5     -26.915  12.093  31.177  0.00  0.00    +0.000 OA
ATOM   1757  C5  U   B   5     -28.249  10.703  32.561  0.00  0.00    +0.000 A 
ATOM   1758  C6  U   B   5     -29.462  10.150  32.713  0.00  0.00    +0.000 A 
ATOM   1759  H   U   B   5     -28.896  12.244  29.772  0.00  0.00    +0.000 HD
ENDBRANCH17501751
BRANCH17491760
ATOM   1760  O2' U   B   5     -33.340   8.322  30.802  0.00  0.00    +0.000 OA
ATOM   1761  H   U   B   5     -33.902   8.356  31.592  0.00  0.00    +0.000 HD
ENDBRANCH17491760
BRANCH17461762
ATOM   1762  C5' U   B   5     -31.541   7.409  34.749  0.00  0.00    +0.000 C 
BRANCH17621763
ATOM   1763  O5' U   B   5     -30.139   7.645  34.769  0.00  0.00    +0.000 OA
BRANCH17631764
ATOM   1764  P   U   B   5     -29.298   7.491  36.115  0.00  0.00    +0.000 P 
ATOM   1765  OP2 U   B   5     -27.901   7.914  35.837  0.00  0.00    +0.000 OA
BRANCH17641766
ATOM   1766  OP1 U   B   5     -29.565   6.145  36.677  0.00  0.00    +0.000 OA
ATOM   1767  H   U   B   5     -29.157   5.471  36.110  0.00  0.00    +0.000 HD
ENDBRANCH17641766
BRANCH17641768
ATOM   1768  O3' A   B   4     -29.975   8.572  37.060  0.00  0.00    +0.000 OA
BRANCH17681771
ATOM   1769  C4' A   B   4     -29.763  10.693  38.245  0.00  0.00    +0.000 C 
ATOM   1770  O4' A   B   4     -29.931  12.078  37.852  0.00  0.00    +0.000 OA
ATOM   1771  C3' A   B   4     -29.670   9.952  36.928  0.00  0.00    +0.000 C 
ATOM   1772  C2' A   B   4     -30.666  10.715  36.065  0.00  0.00    +0.000 C 
ATOM   1773  C1' A   B   4     -30.424  12.145  36.529  0.00  0.00    +0.000 C 
BRANCH17731774
ATOM   1774  N9  A   B   4     -29.433  12.840  35.693  0.00  0.00    +0.000 N 
ATOM   1775  C8  A   B   4     -28.110  13.074  35.973  0.00  0.00    +0.000 A 
ATOM   1776  N7  A   B   4     -27.478  13.722  35.024  0.00  0.00    +0.000 NA
ATOM   1777  C5  A   B   4     -28.453  13.929  34.055  0.00  0.00    +0.000 A 
ATOM   1778  C6  A   B   4     -28.421  14.563  32.801  0.00  0.00    +0.000 A 
ATOM   1779  N1  A   B   4     -29.560  14.595  32.086  0.00  0.00    +0.000 NA
ATOM   1780  C2  A   B   4     -30.657  14.031  32.600  0.00  0.00    +0.000 A 
ATOM   1781  N3  A   B   4     -30.812  13.408  33.765  0.00  0.00    +0.000 NA
ATOM   1782  C4  A   B   4     -29.657  13.392  34.451  0.00  0.00    +0.000 A 
BRANCH17781783
ATOM   1783  N6  A   B   4     -27.320  15.127  32.283  0.00  0.00    +0.000 N 
ATOM   1784  H   A   B   4     -27.357  15.558  31.398  0.00  0.00    +0.000 HD
ATOM   1785  H   A   B   4     -26.475  15.110  32.787  0.00  0.00    +0.000 HD
ENDBRANCH17781783
ENDBRANCH17731774
BRANCH17721786
ATOM   1786  O2' A   B   4     -31.998  10.352  36.359  0.00  0.00    +0.000 OA
ATOM   1787  H   A   B   4     -32.170  10.492  37.303  0.00  0.00    +0.000 HD
ENDBRANCH17721786
BRANCH17691788
ATOM   1788  C5' A   B   4     -28.570  10.567  39.158  0.00  0.00    +0.000 C 
BRANCH17881789
ATOM   1789  O5' A   B   4     -27.398  11.092  38.547  0.00  0.00    +0.000 OA
BRANCH17891790
ATOM   1790  P   A   B   4     -26.109  11.436  39.420  0.00  0.00    +0.000 P 
ATOM   1791  OP2 A   B   4     -25.087  12.025  38.517  0.00  0.00    +0.000 OA
BRANCH17901792
ATOM   1792  OP1 A   B   4     -25.771  10.242  40.236  0.00  0.00    +0.000 OA
ATOM   1793  H   A   B   4     -25.444   9.536  39.656  0.00  0.00    +0.000 HD
ENDBRANCH17901792
BRANCH17901794
ATOM   1794  O3' A   B   3     -26.641  12.578  40.386  0.00  0.00    +0.000 OA
BRANCH17941797
ATOM   1795  C4' A   B   3     -26.655  14.937  41.019  0.00  0.00    +0.000 C 
ATOM   1796  O4' A   B   3     -27.316  16.111  40.482  0.00  0.00    +0.000 OA
ATOM   1797  C3' A   B   3     -26.809  13.909  39.920  0.00  0.00    +0.000 C 
ATOM   1798  C2' A   B   3     -28.215  14.201  39.413  0.00  0.00    +0.000 C 
ATOM   1799  C1' A   B   3     -28.250  15.721  39.496  0.00  0.00    +0.000 C 
BRANCH17991800
ATOM   1800  N9  A   B   3     -27.888  16.348  38.215  0.00  0.00    +0.000 N 
ATOM   1801  C8  A   B   3     -26.693  16.918  37.857  0.00  0.00    +0.000 A 
ATOM   1802  N7  A   B   3     -26.683  17.391  36.633  0.00  0.00    +0.000 NA
ATOM   1803  C5  A   B   3     -27.959  17.114  36.156  0.00  0.00    +0.000 A 
ATOM   1804  C6  A   B   3     -28.585  17.364  34.922  0.00  0.00    +0.000 A 
ATOM   1805  N1  A   B   3     -29.861  16.958  34.775  0.00  0.00    +0.000 NA
ATOM   1806  C2  A   B   3     -30.464  16.346  35.799  0.00  0.00    +0.000 A 
ATOM   1807  N3  A   B   3     -29.982  16.056  37.004  0.00  0.00    +0.000 NA
ATOM   1808  C4  A   B   3     -28.708  16.473  37.117  0.00  0.00    +0.000 A 
BRANCH18041809
ATOM   1809  N6  A   B   3     -27.981  17.974  33.896  0.00  0.00    +0.000 N 
ATOM   1810  H   A   B   3     -28.470  18.122  33.054  0.00  0.00    +0.000 HD
ATOM   1811  H   A   B   3     -27.048  18.275  33.982  0.00  0.00    +0.000 HD
ENDBRANCH18041809
ENDBRANCH17991800
BRANCH17981812
ATOM   1812  O2' A   B   3     -29.199  13.667  40.274  0.00  0.00    +0.000 OA
ATOM   1813  H   A   B   3     -29.066  14.013  41.170  0.00  0.00    +0.000 HD
ENDBRANCH17981812
BRANCH17951814
ATOM   1814  C5' A   B   3     -25.244  15.283  41.422  0.00  0.00    +0.000 C 
BRANCH18141815
ATOM   1815  O5' A   B   3     -24.514  15.837  40.329  0.00  0.00    +0.000 OA
BRANCH18151816
ATOM   1816  P   A   B   3     -23.156  16.633  40.588  0.00  0.00    +0.000 P 
ATOM   1817  OP2 A   B   3     -22.637  17.096  39.277  0.00  0.00    +0.000 OA
BRANCH18161818
ATOM   1818  OP1 A   B   3     -22.297  15.805  41.474  0.00  0.00    +0.000 OA
ATOM   1819  H   A   B   3     -21.992  15.022  40.989  0.00  0.00    +0.000 HD
ENDBRANCH18161818
BRANCH18161820
ATOM   1820  O3' U   B   2     -23.647  17.913  41.403  0.00  0.00    +0.000 OA
BRANCH18201823
ATOM   1821  C4' U   B   2     -23.986  20.334  41.391  0.00  0.00    +0.000 C 
ATOM   1822  O4' U   B   2     -25.043  21.195  40.896  0.00  0.00    +0.000 OA
ATOM   1823  C3' U   B   2     -24.273  19.003  40.737  0.00  0.00    +0.000 C 
ATOM   1824  C2' U   B   2     -25.796  18.952  40.773  0.00  0.00    +0.000 C 
ATOM   1825  C1' U   B   2     -26.145  20.410  40.486  0.00  0.00    +0.000 C 
BRANCH18251826
ATOM   1826  N1  U   B   2     -26.401  20.643  39.047  0.00  0.00    +0.000 N 
ATOM   1827  C2  U   B   2     -27.645  20.286  38.549  0.00  0.00    +0.000 A 
ATOM   1828  O2  U   B   2     -28.521  19.796  39.243  0.00  0.00    +0.000 OA
ATOM   1829  N3  U   B   2     -27.830  20.524  37.209  0.00  0.00    +0.000 N 
ATOM   1830  C4  U   B   2     -26.918  21.070  36.328  0.00  0.00    +0.000 A 
ATOM   1831  O4  U   B   2     -27.231  21.221  35.148  0.00  0.00    +0.000 OA
ATOM   1832  C5  U   B   2     -25.659  21.411  36.915  0.00  0.00    +0.000 A 
ATOM   1833  C6  U   B   2     -25.447  21.192  38.222  0.00  0.00    +0.000 A 
ATOM   1834  H   U   B   2     -28.708  20.279  36.837  0.00  0.00    +0.000 HD
ENDBRANCH18251826
BRANCH18241835
ATOM   1835  O2' U   B   2     -26.276  18.606  42.056  0.00  0.00    +0.000 OA
ATOM   1836  H   U   B   2     -25.927  19.230  42.711  0.00  0.00    +0.000 HD
ENDBRANCH18241835
BRANCH18211837
ATOM   1837  C5' U   B   2     -22.642  20.939  41.090  0.00  0.00    +0.000 C 
BRANCH18371838
ATOM   1838  O5' U   B   2     -22.404  20.987  39.689  0.00  0.00    +0.000 OA
BRANCH18381839
ATOM   1839  P   U   B   2     -21.084  21.662  39.106  0.00  0.00    +0.000 P 
ATOM   1840  OP2 U   B   2     -21.134  21.566  37.624  0.00  0.00    +0.000 OA
BRANCH18391841
ATOM   1841  OP1 U   B   2     -19.915  21.124  39.842  0.00  0.00    +0.000 OA
ATOM   1842  H   U   B   2     -19.103  21.527  39.497  0.00  0.00    +0.000 HD
ENDBRANCH18391841
BRANCH18391843
ATOM   1843  O3' C   B   1     -21.238  23.243  39.524  0.00  0.00    +0.000 OA
BRANCH18431846
ATOM   1844  C4' C   B   1     -21.771  25.437  38.618  0.00  0.00    +0.000 C 
ATOM   1845  O4' C   B   1     -22.993  26.220  38.540  0.00  0.00    +0.000 OA
ATOM   1846  C3' C   B   1     -22.252  24.044  38.927  0.00  0.00    +0.000 C 
ATOM   1847  C2' C   B   1     -23.433  24.296  39.840  0.00  0.00    +0.000 C 
ATOM   1848  C1' C   B   1     -24.031  25.543  39.205  0.00  0.00    +0.000 C 
BRANCH18481849
ATOM   1849  N1  C   B   1     -25.103  25.251  38.229  0.00  0.00    +0.000 N 
ATOM   1850  C2  C   B   1     -26.341  24.801  38.679  0.00  0.00    +0.000 A 
ATOM   1851  O2  C   B   1     -26.524  24.648  39.898  0.00  0.00    +0.000 OA
ATOM   1852  N3  C   B   1     -27.321  24.536  37.787  0.00  0.00    +0.000 NA
ATOM   1853  C4  C   B   1     -27.099  24.710  36.482  0.00  0.00    +0.000 A 
ATOM   1854  N4  C   B   1     -28.090  24.444  35.638  0.00  0.00    +0.000 N 
ATOM   1855  C5  C   B   1     -25.849  25.171  35.986  0.00  0.00    +0.000 A 
ATOM   1856  C6  C   B   1     -24.887  25.427  36.883  0.00  0.00    +0.000 A 
ATOM   1857  H   C   B   1     -27.957  24.562  34.670  0.00  0.00    +0.000 HD
ATOM   1858  H   C   B   1     -28.957  24.128  35.981  0.00  0.00    +0.000 HD
ENDBRANCH18481849
BRANCH18471859
ATOM   1859  O2' C   B   1     -23.018  24.578  41.148  0.00  0.00    +0.000 OA
ATOM   1860  H   C   B   1     -22.406  25.331  41.138  0.00  0.00    +0.000 HD
ENDBRANCH18471859
BRANCH18441861
ATOM   1861  C5' C   B   1     -21.009  25.592  37.335  0.00  0.00    +0.000 C 
BRANCH18611862
ATOM   1862  O5' C   B   1     -21.780  25.117  36.237  0.00  0.00    +0.000 OA
BRANCH18621863
ATOM   1863  P   C   B   1     -21.186  24.782  34.788  0.00  0.00    +0.000 P 
ATOM   1864  OP2 C   B   1     -22.267  25.211  33.879  0.00  0.00    +0.000 OA
ATOM   1865  H   C   B   1     -20.450  25.731  34.108  0.00  0.00    +0.000 HD
BRANCH18631866
ATOM   1866  OP3 C   B   1     -20.198  24.560  34.623  0.00  0.00    +0.000 OA
BRANCH18661867
ATOM   1867  OP1 C   B   1     -20.840  23.367  34.735  0.00  0.00    +0.000 OA
ATOM   1868  H   C   B   1     -20.201  22.645  34.630  0.00  0.00    +0.000 HD
ENDBRANCH18661867
ENDBRANCH18631866
ENDBRANCH18621863
ENDBRANCH18611862
ENDBRANCH18441861
ENDBRANCH18431846
ENDBRANCH18391843
ENDBRANCH18381839
ENDBRANCH18371838
ENDBRANCH18211837
ENDBRANCH18201823
ENDBRANCH18161820
ENDBRANCH18151816
ENDBRANCH18141815
ENDBRANCH17951814
ENDBRANCH17941797
ENDBRANCH17901794
ENDBRANCH17891790
ENDBRANCH17881789
ENDBRANCH17691788
ENDBRANCH17681771
ENDBRANCH17641768
ENDBRANCH17631764
ENDBRANCH17621763
ENDBRANCH17461762
ENDBRANCH17451748
ENDBRANCH17411745
ENDBRANCH17401741
ENDBRANCH17391740
ENDBRANCH17201739
ENDBRANCH17191722
ENDBRANCH17151719
ENDBRANCH17141715
ENDBRANCH17131714
ENDBRANCH16961713
ENDBRANCH16951698
ENDBRANCH16911695
ENDBRANCH16901691
ENDBRANCH16891690
ENDBRANCH16731689
ENDBRANCH16721675
ENDBRANCH16681672
ENDBRANCH16671668
ENDBRANCH16661667
ENDBRANCH16471666
ENDBRANCH16461649
ENDBRANCH16421646
ENDBRANCH16411642
ENDBRANCH16401641
ENDBRANCH16241640
ENDBRANCH16231626
ENDBRANCH16191623
ENDBRANCH16181619
ENDBRANCH16171618
ENDBRANCH16011617
ENDBRANCH16001603
ENDBRANCH15961600
ENDBRANCH15951596
ENDBRANCH15941595
ENDBRANCH15781594
ENDBRANCH15771580
ENDBRANCH15731577
ENDBRANCH15721573
ENDBRANCH15711572
ENDBRANCH15541571
ENDBRANCH15531556
ENDBRANCH15491553
ENDBRANCH15481549
ENDBRANCH15471548
ENDBRANCH15281547
ENDBRANCH15271530
ENDBRANCH15231527
ENDBRANCH15221523
ENDBRANCH15211522
ENDBRANCH15051521
ENDBRANCH15041507
ENDBRANCH15001504
ENDBRANCH14991500
ENDBRANCH14981499
ENDBRANCH14811498
ENDBRANCH14801483
ENDBRANCH14761480
ENDBRANCH14751476
ENDBRANCH14741475
ENDBRANCH14571474
ENDBRANCH14561459
ENDBRANCH14521456
ENDBRANCH14511452
ENDBRANCH14501451
ENDBRANCH14291450
ENDBRANCH14281431
ENDBRANCH14241428
ENDBRANCH14231424
ENDBRANCH14221423
ENDBRANCH14031422
ENDBRANCH14021405
ENDBRANCH13981402
ENDBRANCH13971398
ENDBRANCH13961397
ENDBRANCH13771396
ENDBRANCH13761379
ENDBRANCH13721376
ENDBRANCH13711372
ENDBRANCH13701371
ENDBRANCH13511370
ENDBRANCH13501353
ENDBRANCH13461350
ENDBRANCH13451346
ENDBRANCH13441345
ENDBRANCH13271344
ENDBRANCH13261329
ENDBRANCH13221326
ENDBRANCH13211322
ENDBRANCH13201321
ENDBRANCH13041320
ENDBRANCH13031306
ENDBRANCH12991303
ENDBRANCH12981299
ENDBRANCH12971298
ENDBRANCH12811297
ENDBRANCH12801283
ENDBRANCH12761280
ENDBRANCH12751276
ENDBRANCH12741275
ENDBRANCH12581274
ENDBRANCH12571260
ENDBRANCH12531257
ENDBRANCH12521253
ENDBRANCH12511252
ENDBRANCH12351251
ENDBRANCH12341237
ENDBRANCH12301234
ENDBRANCH12291230
ENDBRANCH12281229
ENDBRANCH12121228
ENDBRANCH12111214
ENDBRANCH12071211
ENDBRANCH12061207
ENDBRANCH12051206
ENDBRANCH11891205
ENDBRANCH11881191
ENDBRANCH11841188
ENDBRANCH11831184
ENDBRANCH11821183
ENDBRANCH11631182
ENDBRANCH11621165
ENDBRANCH11581162
ENDBRANCH11571158
ENDBRANCH11561157
ENDBRANCH11371156
ENDBRANCH11361139
ENDBRANCH11321136
ENDBRANCH11311132
ENDBRANCH11301131
ENDBRANCH11111130
ENDBRANCH11101113
ENDBRANCH11061110
ENDBRANCH11051106
ENDBRANCH11041105
ENDBRANCH10851104
ENDBRANCH10841087
ENDBRANCH10801084
ENDBRANCH10791080
ENDBRANCH10781079
ENDBRANCH10621078
ENDBRANCH10611064
ENDBRANCH10571061
ENDBRANCH10561057
ENDBRANCH10551056
ENDBRANCH10361055
ENDBRANCH10351038
ENDBRANCH10311035
ENDBRANCH10301031
ENDBRANCH10291030
ENDBRANCH10101029
ENDBRANCH10091012
ENDBRANCH10051009
ENDBRANCH10041005
ENDBRANCH10031004
ENDBRANCH 9871003
ENDBRANCH 986 989
ENDBRANCH 982 986
ENDBRANCH 981 982
ENDBRANCH 980 981
ENDBRANCH 961 980
ENDBRANCH 960 963
ENDBRANCH 956 960
ENDBRANCH 955 956
ENDBRANCH 954 955
ENDBRANCH 938 954
ENDBRANCH 937 940
ENDBRANCH   1 937
TORSDOF 624
