REMARK  Name = /storage/kiran-stuff/aaRS/phase2/energy_scoring/vina_182jobs/modern_thrrs_ALA_ALA/ligand.h.pdb
REMARK  4 active torsions:
REMARK  status: ('A' for Active; 'I' for Inactive)
REMARK    1  A    between atoms: N_1  and  CA_2
REMARK    2  A    between atoms: CA_2  and  C_3
REMARK    3  A    between atoms: CA_2  and  CB_5
REMARK    4  A    between atoms: C_3  and  O_4
REMARK                            x       y       z     vdW  Elec       q    Type
REMARK                         _______ _______ _______ _____ _____    ______ ____
ROOT
ATOM      1  CA  ALA B   1       4.776  16.270  -6.389  0.00  0.00    +0.000 C 
ATOM      2  CB  ALA B   1       4.877  14.884  -5.804  0.00  0.00    +0.000 C 
ENDROOT
BRANCH   1   3
ATOM      3  N   ALA B   1       4.575  17.248  -5.295  0.00  0.00    +0.000 NA
ATOM      4  H   ALA B   1       4.506  18.187  -5.687  0.00  0.00    +0.000 HD
ATOM      5  H   ALA B   1       5.365  17.205  -4.651  0.00  0.00    +0.000 HD
ENDBRANCH   1   3
BRANCH   1   6
ATOM      6  C   ALA B   1       3.654  16.319  -7.377  0.00  0.00    +0.000 C 
ATOM      7  OXT ALA B   1       3.919  16.288  -8.583  0.00  0.00    +0.000 OA
BRANCH   6   8
ATOM      8  O   ALA B   1       2.483  16.363  -6.987  0.00  0.00    +0.000 OA
ATOM      9  H   ALA B   1       2.295  16.386  -6.069  0.00  0.00    +0.000 HD
ENDBRANCH   6   8
ENDBRANCH   1   6
TORSDOF 3
