REMARK  Name = /storage/kiran-stuff/aaRS/phase2/energy_scoring/vina_182jobs/modern_thrrs_TRP_TRP/ligand.h.pdb
REMARK  5 active torsions:
REMARK  status: ('A' for Active; 'I' for Inactive)
REMARK    1  A    between atoms: N_1  and  CA_2
REMARK    2  A    between atoms: CA_2  and  C_3
REMARK    3  A    between atoms: CA_2  and  CB_5
REMARK    4  A    between atoms: C_3  and  OXT_15
REMARK    5  A    between atoms: CB_5  and  CG_6
REMARK                            x       y       z     vdW  Elec       q    Type
REMARK                         _______ _______ _______ _____ _____    ______ ____
ROOT
ATOM      1  CB  TRP B   1       3.862  11.981  -2.336  0.00  0.00    +0.000 C 
ENDROOT
BRANCH   1   2
ATOM      2  CG  TRP B   1       4.354  13.330  -2.007  0.00  0.00    +0.000 C 
ATOM      3  CD1 TRP B   1       4.588  13.778  -0.748  0.00  0.00    +0.000 C 
ATOM      4  CD2 TRP B   1       4.682  14.356  -2.914  0.00  0.00    +0.000 A 
ATOM      5  NE1 TRP B   1       5.076  15.036  -0.805  0.00  0.00    +0.000 NA
ATOM      6  CE2 TRP B   1       5.153  15.426  -2.118  0.00  0.00    +0.000 A 
ATOM      7  CE3 TRP B   1       4.655  14.496  -4.293  0.00  0.00    +0.000 A 
ATOM      8  CZ2 TRP B   1       5.604  16.610  -2.698  0.00  0.00    +0.000 A 
ATOM      9  CZ3 TRP B   1       5.091  15.667  -4.852  0.00  0.00    +0.000 A 
ATOM     10  CH2 TRP B   1       5.564  16.704  -4.084  0.00  0.00    +0.000 A 
ENDBRANCH   1   2
BRANCH   1  11
ATOM     11  CA  TRP B   1       3.578  11.794  -3.855  0.00  0.00    +0.000 C 
BRANCH  11  12
ATOM     12  N   TRP B   1       2.147  11.784  -4.106  0.00  0.00    +0.000 NA
ATOM     13  H   TRP B   1       1.742  12.670  -3.803  0.00  0.00    +0.000 HD
ATOM     14  H   TRP B   1       1.716  11.019  -3.589  0.00  0.00    +0.000 HD
ENDBRANCH  11  12
BRANCH  11  15
ATOM     15  C   TRP B   1       4.219  10.449  -4.312  0.00  0.00    +0.000 C 
ATOM     16  O   TRP B   1       3.479   9.500  -4.623  0.00  0.00    +0.000 OA
BRANCH  15  17
ATOM     17  OXT TRP B   1       5.465  10.344  -4.319  0.00  0.00    +0.000 OA
ATOM     18  H   TRP B   1       5.999  11.076  -4.080  0.00  0.00    +0.000 HD
ENDBRANCH  15  17
ENDBRANCH  11  15
ENDBRANCH   1  11
TORSDOF 5
