REMARK  Name = /storage/kiran-stuff/aaRS/phase2/energy_scoring/vina_182jobs/modern_thrrs_TRP_TRP/ligand.h.pdb
REMARK  5 active torsions:
REMARK  status: ('A' for Active; 'I' for Inactive)
REMARK    1  A    between atoms: N_1  and  CA_2
REMARK    2  A    between atoms: CA_2  and  C_3
REMARK    3  A    between atoms: CA_2  and  CB_5
REMARK    4  A    between atoms: C_3  and  OXT_15
REMARK    5  A    between atoms: CB_5  and  CG_6
REMARK                            x       y       z     vdW  Elec       q    Type
REMARK                         _______ _______ _______ _____ _____    ______ ____
ROOT
ATOM      1  CB  TRP B   1       1.822  12.216  -1.014  0.00  0.00    +0.000 C 
ENDROOT
BRANCH   1   2
ATOM      2  CG  TRP B   1       2.607  12.193  -2.261  0.00  0.00    +0.000 C 
ATOM      3  CD1 TRP B   1       3.212  13.277  -2.809  0.00  0.00    +0.000 C 
ATOM      4  CD2 TRP B   1       2.881  11.073  -3.069  0.00  0.00    +0.000 A 
ATOM      5  NE1 TRP B   1       3.885  12.900  -3.918  0.00  0.00    +0.000 NA
ATOM      6  CE2 TRP B   1       3.710  11.553  -4.109  0.00  0.00    +0.000 A 
ATOM      7  CE3 TRP B   1       2.547   9.728  -3.031  0.00  0.00    +0.000 A 
ATOM      8  CZ2 TRP B   1       4.208  10.693  -5.086  0.00  0.00    +0.000 A 
ATOM      9  CZ3 TRP B   1       3.033   8.894  -4.002  0.00  0.00    +0.000 A 
ATOM     10  CH2 TRP B   1       3.852   9.352  -5.007  0.00  0.00    +0.000 A 
ENDBRANCH   1   2
BRANCH   1  11
ATOM     11  CA  TRP B   1       0.329  11.834  -1.233  0.00  0.00    +0.000 C 
BRANCH  11  12
ATOM     12  N   TRP B   1      -0.277  12.703  -2.228  0.00  0.00    +0.000 NA
ATOM     13  H   TRP B   1       0.220  12.605  -3.113  0.00  0.00    +0.000 HD
ATOM     14  H   TRP B   1      -0.222  13.671  -1.913  0.00  0.00    +0.000 HD
ENDBRANCH  11  12
BRANCH  11  15
ATOM     15  C   TRP B   1      -0.415  11.967   0.130  0.00  0.00    +0.000 C 
ATOM     16  O   TRP B   1      -1.205  12.912   0.299  0.00  0.00    +0.000 OA
BRANCH  15  17
ATOM     17  OXT TRP B   1      -0.172  11.141   1.036  0.00  0.00    +0.000 OA
ATOM     18  H   TRP B   1       0.428  10.438   0.881  0.00  0.00    +0.000 HD
ENDBRANCH  15  17
ENDBRANCH  11  15
ENDBRANCH   1  11
TORSDOF 5
