REMARK  Name = /storage/kiran-stuff/aaRS/phase2/energy_scoring/vina_182jobs/anc_prors_edit_TRP_TRP/ligand.h.pdb
REMARK  5 active torsions:
REMARK  status: ('A' for Active; 'I' for Inactive)
REMARK    1  A    between atoms: N_1  and  CA_2
REMARK    2  A    between atoms: CA_2  and  C_3
REMARK    3  A    between atoms: CA_2  and  CB_5
REMARK    4  A    between atoms: C_3  and  OXT_15
REMARK    5  A    between atoms: CB_5  and  CG_6
REMARK                            x       y       z     vdW  Elec       q    Type
REMARK                         _______ _______ _______ _____ _____    ______ ____
ROOT
ATOM      1  CB  TRP B   1     -18.228   6.982  11.846  0.00  0.00    +0.000 C 
ENDROOT
BRANCH   1   2
ATOM      2  CG  TRP B   1     -18.296   5.512  11.808  0.00  0.00    +0.000 C 
ATOM      3  CD1 TRP B   1     -18.751   4.724  10.798  0.00  0.00    +0.000 C 
ATOM      4  CD2 TRP B   1     -17.863   4.618  12.839  0.00  0.00    +0.000 C 
ATOM      5  NE1 TRP B   1     -18.649   3.421  11.117  0.00  0.00    +0.000 NA
ATOM      6  CE2 TRP B   1     -18.107   3.304  12.365  0.00  0.00    +0.000 C 
ATOM      7  CE3 TRP B   1     -17.340   4.798  14.096  0.00  0.00    +0.000 C 
ATOM      8  CZ2 TRP B   1     -17.800   2.191  13.131  0.00  0.00    +0.000 C 
ATOM      9  CZ3 TRP B   1     -17.028   3.687  14.851  0.00  0.00    +0.000 C 
ATOM     10  CH2 TRP B   1     -17.252   2.400  14.391  0.00  0.00    +0.000 C 
ENDBRANCH   1   2
BRANCH   1  11
ATOM     11  CA  TRP B   1     -17.413   7.589  10.676  0.00  0.00    +0.000 C 
BRANCH  11  12
ATOM     12  N   TRP B   1     -16.130   6.904  10.547  0.00  0.00    +0.000 NA
ATOM     13  H   TRP B   1     -15.603   7.312   9.775  0.00  0.00    +0.000 HD
ATOM     14  H   TRP B   1     -16.291   5.914  10.364  0.00  0.00    +0.000 HD
ENDBRANCH  11  12
BRANCH  11  15
ATOM     15  C   TRP B   1     -17.195   9.068  10.924  0.00  0.00    +0.000 C 
ATOM     16  O   TRP B   1     -16.172   9.470  11.479  0.00  0.00    +0.000 OA
BRANCH  15  17
ATOM     17  OXT TRP B   1     -18.077   9.873  10.586  0.00  0.00    +0.000 OA
ATOM     18  H   TRP B   1     -18.855   9.566  10.164  0.00  0.00    +0.000 HD
ENDBRANCH  15  17
ENDBRANCH  11  15
ENDBRANCH   1  11
TORSDOF 5
