REMARK  Name = /storage/kiran-stuff/aaRS/phase2/energy_scoring/vina_182jobs/anc_prors_edit_TRP_TRP/ligand.h.pdb
REMARK  5 active torsions:
REMARK  status: ('A' for Active; 'I' for Inactive)
REMARK    1  A    between atoms: N_1  and  CA_2
REMARK    2  A    between atoms: CA_2  and  C_3
REMARK    3  A    between atoms: CA_2  and  CB_5
REMARK    4  A    between atoms: C_3  and  OXT_15
REMARK    5  A    between atoms: CB_5  and  CG_6
REMARK                            x       y       z     vdW  Elec       q    Type
REMARK                         _______ _______ _______ _____ _____    ______ ____
ROOT
ATOM      1  CB  TRP B   1     -18.113   6.632  11.891  0.00  0.00    +0.000 C 
ENDROOT
BRANCH   1   2
ATOM      2  CG  TRP B   1     -18.528   5.353  11.293  0.00  0.00    +0.000 C 
ATOM      3  CD1 TRP B   1     -19.229   5.157  10.145  0.00  0.00    +0.000 C 
ATOM      4  CD2 TRP B   1     -18.242   4.047  11.806  0.00  0.00    +0.000 C 
ATOM      5  NE1 TRP B   1     -19.413   3.845   9.908  0.00  0.00    +0.000 NA
ATOM      6  CE2 TRP B   1     -18.823   3.121  10.903  0.00  0.00    +0.000 C 
ATOM      7  CE3 TRP B   1     -17.599   3.586  12.929  0.00  0.00    +0.000 C 
ATOM      8  CZ2 TRP B   1     -18.730   1.754  11.111  0.00  0.00    +0.000 C 
ATOM      9  CZ3 TRP B   1     -17.502   2.225  13.127  0.00  0.00    +0.000 C 
ATOM     10  CH2 TRP B   1     -18.056   1.313  12.244  0.00  0.00    +0.000 C 
ENDBRANCH   1   2
BRANCH   1  11
ATOM     11  CA  TRP B   1     -17.483   7.612  10.869  0.00  0.00    +0.000 C 
BRANCH  11  12
ATOM     12  N   TRP B   1     -16.547   6.902  10.002  0.00  0.00    +0.000 NA
ATOM     13  H   TRP B   1     -16.139   7.556   9.334  0.00  0.00    +0.000 HD
ATOM     14  H   TRP B   1     -17.042   6.166   9.498  0.00  0.00    +0.000 HD
ENDBRANCH  11  12
BRANCH  11  15
ATOM     15  C   TRP B   1     -16.770   8.726  11.608  0.00  0.00    +0.000 C 
ATOM     16  O   TRP B   1     -15.565   8.652  11.850  0.00  0.00    +0.000 OA
BRANCH  15  17
ATOM     17  OXT TRP B   1     -17.423   9.708  11.995  0.00  0.00    +0.000 OA
ATOM     18  H   TRP B   1     -18.340   9.763  11.810  0.00  0.00    +0.000 HD
ENDBRANCH  15  17
ENDBRANCH  11  15
ENDBRANCH   1  11
TORSDOF 5
