REMARK  Name = /storage/kiran-stuff/aaRS/phase2/energy_scoring/vina_182jobs/shallow_domain_thr_THR/ligand.h.pdb
REMARK  6 active torsions:
REMARK  status: ('A' for Active; 'I' for Inactive)
REMARK    1  A    between atoms: N_1  and  CA_2
REMARK    2  A    between atoms: CA_2  and  C_3
REMARK    3  A    between atoms: CA_2  and  CB_5
REMARK    4  A    between atoms: C_3  and  O_4
REMARK    5  A    between atoms: CB_5  and  OG1_6
REMARK    6  A    between atoms: CB_5  and  CG2_7
REMARK                            x       y       z     vdW  Elec       q    Type
REMARK                         _______ _______ _______ _____ _____    ______ ____
ROOT
ATOM      1  CA  THR C   1       6.126   7.053   6.516  0.00  0.00    +0.000 C 
ENDROOT
BRANCH   1   2
ATOM      2  N   THR C   1       5.818   8.013   5.460  0.00  0.00    +0.000 NA
ATOM      3  H   THR C   1       6.676   8.476   5.160  0.00  0.00    +0.000 HD
ATOM      4  H   THR C   1       5.162   8.709   5.814  0.00  0.00    +0.000 HD
ENDBRANCH   1   2
BRANCH   1   5
ATOM      5  C   THR C   1       7.098   6.010   6.025  0.00  0.00    +0.000 C 
ATOM      6  OXT THR C   1       8.309   6.250   6.077  0.00  0.00    +0.000 OA
BRANCH   5   7
ATOM      7  O   THR C   1       6.689   4.926   5.632  0.00  0.00    +0.000 OA
ATOM      8  H   THR C   1       5.768   4.758   5.598  0.00  0.00    +0.000 HD
ENDBRANCH   5   7
ENDBRANCH   1   5
BRANCH   1   9
ATOM      9  CB  THR C   1       4.867   6.335   6.995  0.00  0.00    +0.000 C 
ATOM     10  CG2 THR C   1       4.313   7.004   8.198  0.00  0.00    +0.000 C 
BRANCH   9  11
ATOM     11  OG1 THR C   1       3.882   6.324   5.963  0.00  0.00    +0.000 OA
ATOM     12  H   THR C   1       3.642   7.236   5.736  0.00  0.00    +0.000 HD
ENDBRANCH   9  11
ENDBRANCH   1   9
TORSDOF 5
