REMARK  Name = /storage/kiran-stuff/aaRS/phase2/energy_scoring/vina_182jobs/shallow_domain_thr_THR/ligand.h.pdb
REMARK  280 active torsions:
REMARK  status: ('A' for Active; 'I' for Inactive)
REMARK    1  A    between atoms: P_2  and  OP1_3
REMARK    2  A    between atoms: P_2  and  OP2_4
REMARK    3  A    between atoms: P_2  and  O5'_5
REMARK    4  A    between atoms: O5'_5  and  C5'_6
REMARK    5  A    between atoms: C5'_6  and  C4'_7
REMARK    6  A    between atoms: C3'_9  and  O3'_10
REMARK    7  A    between atoms: O3'_10  and  P_22
REMARK    8  A    between atoms: C2'_11  and  O2'_12
REMARK    9  A    between atoms: C1'_13  and  N1_14
REMARK   10  A    between atoms: P_22  and  OP1_23
REMARK   11  A    between atoms: P_22  and  O5'_25
REMARK   12  A    between atoms: O5'_25  and  C5'_26
REMARK   13  A    between atoms: C5'_26  and  C4'_27
REMARK   14  A    between atoms: C3'_29  and  O3'_30
REMARK   15  A    between atoms: O3'_30  and  P_42
REMARK   16  A    between atoms: C2'_31  and  O2'_32
REMARK   17  A    between atoms: C1'_33  and  N1_34
REMARK   18  A    between atoms: P_42  and  OP1_43
REMARK   19  A    between atoms: P_42  and  O5'_45
REMARK   20  A    between atoms: O5'_45  and  C5'_46
REMARK   21  A    between atoms: C5'_46  and  C4'_47
REMARK   22  A    between atoms: C2'_51  and  O2'_52
REMARK   23  A    between atoms: C6_58  and  N6_59
REMARK   24  A    between atoms: P_64  and  OP1_65
REMARK   25  A    between atoms: C2'_73  and  O2'_74
REMARK   26  A    between atoms: C1'_75  and  N9_76
REMARK   27  A    between atoms: C6_80  and  N6_81
REMARK   28  A    between atoms: C2'_95  and  O2'_96
REMARK   29  A    between atoms: C1'_97  and  N1_98
REMARK   30  A    between atoms: P_106  and  OP1_107
REMARK   31  A    between atoms: C2'_115  and  O2'_116
REMARK   32  A    between atoms: C1'_117  and  N9_118
REMARK   33  A    between atoms: C6_122  and  N6_123
REMARK   34  A    between atoms: P_128  and  OP1_129
REMARK   35  A    between atoms: C2'_137  and  O2'_138
REMARK   36  A    between atoms: C1'_139  and  N1_140
REMARK   37  A    between atoms: P_148  and  OP2_150
REMARK   38  A    between atoms: C2'_157  and  O2'_158
REMARK   39  A    between atoms: C1'_159  and  N1_160
REMARK   40  A    between atoms: P_168  and  OP2_170
REMARK   41  A    between atoms: C2'_177  and  O2'_178
REMARK   42  A    between atoms: C1'_179  and  N9_180
REMARK   43  A    between atoms: C6_184  and  N6_185
REMARK   44  A    between atoms: P_190  and  OP2_192
REMARK   45  A    between atoms: C2'_199  and  O2'_200
REMARK   46  A    between atoms: C1'_201  and  N1_202
REMARK   47  A    between atoms: P_210  and  OP1_211
REMARK   48  A    between atoms: C2'_219  and  O2'_220
REMARK   49  A    between atoms: C1'_221  and  N1_222
REMARK   50  A    between atoms: C2'_239  and  O2'_240
REMARK   51  A    between atoms: C1'_241  and  N1_242
REMARK   52  A    between atoms: P_250  and  OP1_251
REMARK   53  A    between atoms: C2'_259  and  O2'_260
REMARK   54  A    between atoms: C1'_261  and  N1_262
REMARK   55  A    between atoms: P_270  and  OP1_271
REMARK   56  A    between atoms: C2'_279  and  O2'_280
REMARK   57  A    between atoms: C1'_281  and  N9_282
REMARK   58  A    between atoms: C6_286  and  N6_287
REMARK   59  A    between atoms: P_292  and  OP2_294
REMARK   60  A    between atoms: C2'_301  and  O2'_302
REMARK   61  A    between atoms: C1'_303  and  N1_304
REMARK   62  A    between atoms: P_312  and  OP1_313
REMARK   63  A    between atoms: C2'_321  and  O2'_322
REMARK   64  A    between atoms: C1'_323  and  N1_324
REMARK   65  A    between atoms: P_332  and  OP2_334
REMARK   66  A    between atoms: C2'_341  and  O2'_342
REMARK   67  A    between atoms: C1'_343  and  N1_344
REMARK   68  A    between atoms: P_352  and  OP2_354
REMARK   69  A    between atoms: C2'_361  and  O2'_362
REMARK   70  A    between atoms: C1'_363  and  N9_364
REMARK   71  A    between atoms: P_375  and  OP1_376
REMARK   72  A    between atoms: C2'_384  and  O2'_385
REMARK   73  A    between atoms: C1'_386  and  N9_387
REMARK   74  A    between atoms: C6_391  and  N6_392
REMARK   75  A    between atoms: P_397  and  OP1_398
REMARK   76  A    between atoms: C2'_406  and  O2'_407
REMARK   77  A    between atoms: C1'_408  and  N9_409
REMARK   78  A    between atoms: C6_413  and  N6_414
REMARK   79  A    between atoms: P_419  and  OP1_420
REMARK   80  A    between atoms: C2'_428  and  O2'_429
REMARK   81  A    between atoms: C1'_430  and  N9_431
REMARK   82  A    between atoms: C6_435  and  N6_436
REMARK   83  A    between atoms: P_441  and  OP1_442
REMARK   84  A    between atoms: C2'_450  and  O2'_451
REMARK   85  A    between atoms: C1'_452  and  N1_453
REMARK   86  A    between atoms: P_461  and  OP1_462
REMARK   87  A    between atoms: C2'_470  and  O2'_471
REMARK   88  A    between atoms: C1'_472  and  N1_473
REMARK   89  A    between atoms: P_481  and  OP2_483
REMARK   90  A    between atoms: C2'_490  and  O2'_491
REMARK   91  A    between atoms: C1'_492  and  N1_493
REMARK   92  A    between atoms: P_501  and  OP2_503
REMARK   93  A    between atoms: C2'_510  and  O2'_511
REMARK   94  A    between atoms: C1'_512  and  N1_513
REMARK   95  A    between atoms: P_521  and  OP2_523
REMARK   96  A    between atoms: C2'_530  and  O2'_531
REMARK   97  A    between atoms: C1'_532  and  N1_533
REMARK   98  A    between atoms: P_541  and  OP2_543
REMARK   99  A    between atoms: C2'_550  and  O2'_551
REMARK  100  A    between atoms: C1'_552  and  N1_553
REMARK  101  A    between atoms: P_561  and  OP2_563
REMARK  102  A    between atoms: C2'_570  and  O2'_571
REMARK  103  A    between atoms: C1'_572  and  N1_573
REMARK  104  A    between atoms: P_581  and  OP1_582
REMARK  105  A    between atoms: C2'_590  and  O2'_591
REMARK  106  A    between atoms: C1'_592  and  N9_593
REMARK  107  A    between atoms: C6_597  and  N6_598
REMARK  108  A    between atoms: P_603  and  OP1_604
REMARK  109  A    between atoms: C2'_612  and  O2'_613
REMARK  110  A    between atoms: C1'_614  and  N9_615
REMARK  111  A    between atoms: C6_619  and  N6_620
REMARK  112  A    between atoms: P_625  and  OP1_626
REMARK  113  A    between atoms: C2'_634  and  O2'_635
REMARK  114  A    between atoms: C1'_636  and  N9_637
REMARK  115  A    between atoms: C6_641  and  N6_642
REMARK  116  A    between atoms: P_647  and  OP1_648
REMARK  117  A    between atoms: C2'_656  and  O2'_657
REMARK  118  A    between atoms: C1'_658  and  N9_659
REMARK  119  A    between atoms: C6_663  and  N6_664
REMARK  120  A    between atoms: P_669  and  OP1_670
REMARK  121  A    between atoms: C2'_678  and  O2'_679
REMARK  122  A    between atoms: C1'_680  and  N1_681
REMARK  123  A    between atoms: P_689  and  OP1_690
REMARK  124  A    between atoms: C2'_698  and  O2'_699
REMARK  125  A    between atoms: C1'_700  and  N9_701
REMARK  126  A    between atoms: C6_705  and  N6_706
REMARK  127  A    between atoms: P_711  and  OP2_713
REMARK  128  A    between atoms: C2'_720  and  O2'_721
REMARK  129  A    between atoms: C1'_722  and  N9_723
REMARK  130  A    between atoms: P_733  and  OP2_735
REMARK  131  A    between atoms: C2'_742  and  O2'_743
REMARK  132  A    between atoms: C1'_744  and  N1_745
REMARK  133  A    between atoms: P_753  and  OP2_755
REMARK  134  A    between atoms: C2'_762  and  O2'_763
REMARK  135  A    between atoms: C1'_764  and  N9_765
REMARK  136  A    between atoms: P_775  and  OP2_777
REMARK  137  A    between atoms: C2'_784  and  O2'_785
REMARK  138  A    between atoms: C1'_786  and  N1_787
REMARK  139  A    between atoms: P_795  and  OP1_796
REMARK  140  A    between atoms: C2'_804  and  O2'_805
REMARK  141  A    between atoms: C1'_806  and  N1_807
REMARK  142  A    between atoms: P_815  and  OP1_816
REMARK  143  A    between atoms: C2'_824  and  O2'_825
REMARK  144  A    between atoms: C1'_826  and  N1_827
REMARK  145  A    between atoms: P_835  and  OP1_836
REMARK  146  A    between atoms: C2'_844  and  O2'_845
REMARK  147  A    between atoms: C1'_846  and  N1_847
REMARK  148  A    between atoms: P_855  and  OP1_856
REMARK  149  A    between atoms: C2'_864  and  O2'_865
REMARK  150  A    between atoms: C1'_866  and  N1_867
REMARK  151  A    between atoms: P_875  and  OP1_876
REMARK  152  A    between atoms: C2'_884  and  O2'_885
REMARK  153  A    between atoms: C1'_886  and  N9_887
REMARK  154  A    between atoms: C6_891  and  N6_892
REMARK  155  A    between atoms: P_897  and  OP1_898
REMARK  156  A    between atoms: C2'_906  and  O2'_907
REMARK  157  A    between atoms: C1'_908  and  N1_909
REMARK  158  A    between atoms: P_917  and  OP2_919
REMARK  159  A    between atoms: C2'_926  and  O2'_927
REMARK  160  A    between atoms: C1'_928  and  N1_929
REMARK  161  A    between atoms: P_937  and  OP2_939
REMARK  162  A    between atoms: C2'_946  and  O2'_947
REMARK  163  A    between atoms: C1'_948  and  N1_949
REMARK  164  A    between atoms: P_957  and  OP2_959
REMARK  165  A    between atoms: C2'_966  and  O2'_967
REMARK  166  A    between atoms: C1'_968  and  N1_969
REMARK  167  A    between atoms: P_977  and  OP2_979
REMARK  168  A    between atoms: C2'_986  and  O2'_987
REMARK  169  A    between atoms: C1'_988  and  N9_989
REMARK  170  A    between atoms: P_999  and  OP2_1001
REMARK  171  A    between atoms: C2'_1008  and  O2'_1009
REMARK  172  A    between atoms: C1'_1010  and  N1_1011
REMARK  173  A    between atoms: P_1019  and  OP1_1020
REMARK  174  A    between atoms: C2'_1028  and  O2'_1029
REMARK  175  A    between atoms: C1'_1030  and  N1_1031
REMARK  176  A    between atoms: P_1039  and  OP1_1040
REMARK  177  A    between atoms: C2'_1048  and  O2'_1049
REMARK  178  A    between atoms: C1'_1050  and  N1_1051
REMARK  179  A    between atoms: P_1059  and  OP1_1060
REMARK  180  A    between atoms: C2'_1068  and  O2'_1069
REMARK  181  A    between atoms: C1'_1070  and  N1_1071
REMARK  182  A    between atoms: P_1079  and  OP1_1080
REMARK  183  A    between atoms: C2'_1088  and  O2'_1089
REMARK  184  A    between atoms: C1'_1090  and  N9_1091
REMARK  185  A    between atoms: C6_1095  and  N6_1096
REMARK  186  A    between atoms: P_1101  and  OP1_1102
REMARK  187  A    between atoms: C2'_1110  and  O2'_1111
REMARK  188  A    between atoms: C1'_1112  and  N9_1113
REMARK  189  A    between atoms: C6_1117  and  N6_1118
REMARK  190  A    between atoms: P_1123  and  OP1_1124
REMARK  191  A    between atoms: C2'_1132  and  O2'_1133
REMARK  192  A    between atoms: C1'_1134  and  N9_1135
REMARK  193  A    between atoms: C6_1139  and  N6_1140
REMARK  194  A    between atoms: P_1145  and  OP2_1147
REMARK  195  A    between atoms: C2'_1154  and  O2'_1155
REMARK  196  A    between atoms: C1'_1156  and  N9_1157
REMARK  197  A    between atoms: P_1167  and  OP2_1169
REMARK  198  A    between atoms: C2'_1176  and  O2'_1177
REMARK  199  A    between atoms: C1'_1178  and  N9_1179
REMARK  200  A    between atoms: P_1189  and  OP2_1191
REMARK  201  A    between atoms: C2'_1198  and  O2'_1199
REMARK  202  A    between atoms: C1'_1200  and  N1_1201
REMARK  203  A    between atoms: P_1209  and  OP2_1211
REMARK  204  A    between atoms: C2'_1218  and  O2'_1219
REMARK  205  A    between atoms: C1'_1220  and  N9_1221
REMARK  206  A    between atoms: P_1231  and  OP2_1233
REMARK  207  A    between atoms: C2'_1240  and  O2'_1241
REMARK  208  A    between atoms: C1'_1242  and  N9_1243
REMARK  209  A    between atoms: P_1254  and  OP2_1256
REMARK  210  A    between atoms: C2'_1263  and  O2'_1264
REMARK  211  A    between atoms: C1'_1265  and  N9_1266
REMARK  212  A    between atoms: P_1276  and  OP2_1278
REMARK  213  A    between atoms: C2'_1285  and  O2'_1286
REMARK  214  A    between atoms: C1'_1287  and  N1_1288
REMARK  215  A    between atoms: P_1296  and  OP2_1298
REMARK  216  A    between atoms: C2'_1305  and  O2'_1306
REMARK  217  A    between atoms: C1'_1307  and  N1_1308
REMARK  218  A    between atoms: P_1316  and  OP2_1318
REMARK  219  A    between atoms: C2'_1325  and  O2'_1326
REMARK  220  A    between atoms: C1'_1327  and  N9_1328
REMARK  221  A    between atoms: P_1338  and  OP1_1339
REMARK  222  A    between atoms: C2'_1347  and  O2'_1348
REMARK  223  A    between atoms: C1'_1349  and  N1_1350
REMARK  224  A    between atoms: P_1358  and  OP1_1359
REMARK  225  A    between atoms: C2'_1367  and  O2'_1368
REMARK  226  A    between atoms: C6_1374  and  N6_1375
REMARK  227  A    between atoms: P_1380  and  OP1_1381
REMARK  228  A    between atoms: C2'_1389  and  O2'_1390
REMARK  229  A    between atoms: C1'_1391  and  N9_1392
REMARK  230  A    between atoms: C6_1396  and  N6_1397
REMARK  231  A    between atoms: P_1402  and  OP1_1403
REMARK  232  A    between atoms: C2'_1411  and  O2'_1412
REMARK  233  A    between atoms: C1'_1413  and  N9_1414
REMARK  234  A    between atoms: C6_1418  and  N6_1419
REMARK  235  A    between atoms: P_1424  and  OP1_1425
REMARK  236  A    between atoms: C2'_1433  and  O2'_1434
REMARK  237  A    between atoms: C1'_1435  and  N9_1436
REMARK  238  A    between atoms: C6_1440  and  N6_1441
REMARK  239  A    between atoms: P_1446  and  OP1_1447
REMARK  240  A    between atoms: C2'_1455  and  O2'_1456
REMARK  241  A    between atoms: C1'_1457  and  N9_1458
REMARK  242  A    between atoms: C6_1462  and  N6_1463
REMARK  243  A    between atoms: P_1468  and  OP1_1469
REMARK  244  A    between atoms: C2_1481  and  O2_1482
REMARK  245  A    between atoms: P_1488  and  OP1_1489
REMARK  246  A    between atoms: C3'_1495  and  O3'_1496
REMARK  247  A    between atoms: O3'_1496  and  P_1508
REMARK  248  A    between atoms: C2'_1497  and  O2'_1498
REMARK  249  A    between atoms: P_1508  and  OP2_1510
REMARK  250  A    between atoms: P_1508  and  O5'_1511
REMARK  251  A    between atoms: O5'_1511  and  C5'_1512
REMARK  252  A    between atoms: C5'_1512  and  C4'_1513
REMARK  253  A    between atoms: C3'_1515  and  O3'_1516
REMARK  254  A    between atoms: O3'_1516  and  P_1528
REMARK  255  A    between atoms: C2'_1517  and  O2'_1518
REMARK  256  A    between atoms: C1'_1519  and  N1_1520
REMARK  257  A    between atoms: P_1528  and  OP1_1529
REMARK  258  A    between atoms: P_1528  and  O5'_1531
REMARK  259  A    between atoms: O5'_1531  and  C5'_1532
REMARK  260  A    between atoms: C5'_1532  and  C4'_1533
REMARK  261  A    between atoms: C3'_1535  and  O3'_1536
REMARK  262  A    between atoms: O3'_1536  and  P_1548
REMARK  263  A    between atoms: C2'_1537  and  O2'_1538
REMARK  264  A    between atoms: C1'_1539  and  N1_1540
REMARK  265  A    between atoms: P_1548  and  OP2_1550
REMARK  266  A    between atoms: P_1548  and  O5'_1551
REMARK  267  A    between atoms: O5'_1551  and  C5'_1552
REMARK  268  A    between atoms: C5'_1552  and  C4'_1553
REMARK  269  A    between atoms: C3'_1555  and  O3'_1556
REMARK  270  A    between atoms: O3'_1556  and  P_1568
REMARK  271  A    between atoms: C2'_1557  and  O2'_1558
REMARK  272  A    between atoms: C1'_1559  and  N1_1560
REMARK  273  A    between atoms: P_1568  and  OP1_1569
REMARK  274  A    between atoms: P_1568  and  O5'_1571
REMARK  275  A    between atoms: O5'_1571  and  C5'_1572
REMARK  276  A    between atoms: C5'_1572  and  C4'_1573
REMARK  277  A    between atoms: C3'_1575  and  O3'_1576
REMARK  278  A    between atoms: C2'_1577  and  O2'_1578
REMARK  279  A    between atoms: C1'_1579  and  N9_1580
REMARK  280  A    between atoms: C6_1584  and  N6_1585
REMARK                            x       y       z     vdW  Elec       q    Type
REMARK                         _______ _______ _______ _____ _____    ______ ____
ROOT
ATOM      1  C4' A   B   3     -12.900  31.038 -11.425  0.00  0.00    +0.000 C 
ATOM      2  O4' A   B   3     -13.239  32.426 -11.673  0.00  0.00    +0.000 OA
ATOM      3  C3' A   B   3     -14.243  30.355 -11.256  0.00  0.00    +0.000 C 
ATOM      4  O3' A   B   3     -14.153  29.130 -10.546  0.00  0.00    +0.000 OA
ATOM      5  C2' A   B   3     -15.058  31.416 -10.532  0.00  0.00    +0.000 C 
ATOM      6  C1' A   B   3     -14.546  32.690 -11.202  0.00  0.00    +0.000 C 
ATOM      7  N9  A   B   3     -15.384  33.086 -12.346  0.00  0.00    +0.000 N 
ATOM      8  C8  A   B   3     -15.099  32.959 -13.683  0.00  0.00    +0.000 A 
ATOM      9  N7  A   B   3     -16.051  33.406 -14.468  0.00  0.00    +0.000 NA
ATOM     10  C5  A   B   3     -17.025  33.858 -13.586  0.00  0.00    +0.000 A 
ATOM     11  C6  A   B   3     -18.283  34.449 -13.788  0.00  0.00    +0.000 C 
ATOM     12  N1  A   B   3     -19.002  34.781 -12.694  0.00  0.00    +0.000 N 
ATOM     13  C2  A   B   3     -18.486  34.534 -11.483  0.00  0.00    +0.000 C 
ATOM     14  N3  A   B   3     -17.317  33.986 -11.169  0.00  0.00    +0.000 NA
ATOM     15  C4  A   B   3     -16.627  33.669 -12.281  0.00  0.00    +0.000 A 
ATOM     16  P   A   B   4     -15.274  27.982 -10.772  0.00  0.00    +0.000 P 
ATOM     17  OP2 A   B   4     -15.737  28.028 -12.185  0.00  0.00    +0.000 OA
ATOM     18  O5' A   B   4     -16.485  28.445  -9.845  0.00  0.00    +0.000 OA
ATOM     19  C5' A   B   4     -16.341  28.513  -8.435  0.00  0.00    +0.000 C 
ATOM     20  C4' A   B   4     -17.517  29.211  -7.800  0.00  0.00    +0.000 C 
ATOM     21  O4' A   B   4     -17.621  30.560  -8.316  0.00  0.00    +0.000 OA
ATOM     22  C3' A   B   4     -18.880  28.601  -8.082  0.00  0.00    +0.000 C 
ATOM     23  O3' A   B   4     -19.172  27.488  -7.255  0.00  0.00    +0.000 OA
ATOM     24  C2' A   B   4     -19.814  29.780  -7.861  0.00  0.00    +0.000 C 
ATOM     25  C1' A   B   4     -18.982  30.925  -8.433  0.00  0.00    +0.000 C 
ATOM     26  P   U   B   5     -20.103  26.282  -7.820  0.00  0.00    +0.000 P 
ATOM     27  OP1 U   B   5     -20.127  25.220  -6.786  0.00  0.00    +0.000 OA
ATOM     28  OP2 U   B   5     -19.658  25.961  -9.201  0.00  0.00    +0.000 OA
ATOM     29  O5' U   B   5     -21.557  26.928  -7.908  0.00  0.00    +0.000 OA
ATOM     30  C5' U   B   5     -22.239  27.359  -6.743  0.00  0.00    +0.000 C 
ATOM     31  C4' U   B   5     -23.514  28.090  -7.083  0.00  0.00    +0.000 C 
ATOM     32  O4' U   B   5     -23.209  29.295  -7.829  0.00  0.00    +0.000 OA
ATOM     33  C3' U   B   5     -24.488  27.343  -7.973  0.00  0.00    +0.000 C 
ATOM     34  O3' U   B   5     -25.261  26.384  -7.271  0.00  0.00    +0.000 OA
ATOM     35  C2' U   B   5     -25.317  28.478  -8.564  0.00  0.00    +0.000 C 
ATOM     36  C1' U   B   5     -24.243  29.555  -8.758  0.00  0.00    +0.000 C 
ATOM     37  P   A   B   6     -25.689  24.995  -7.978  0.00  0.00    +0.000 P 
ATOM     38  OP2 A   B   6     -24.508  24.496  -8.725  0.00  0.00    +0.000 OA
ATOM     39  O5' A   B   6     -26.799  25.424  -9.037  0.00  0.00    +0.000 OA
ATOM     40  C5' A   B   6     -28.076  25.850  -8.602  0.00  0.00    +0.000 C 
ATOM     41  C4' A   B   6     -28.846  26.535  -9.708  0.00  0.00    +0.000 C 
ATOM     42  O4' A   B   6     -28.079  27.643 -10.235  0.00  0.00    +0.000 OA
ATOM     43  C3' A   B   6     -29.160  25.698 -10.939  0.00  0.00    +0.000 C 
ATOM     44  O3' A   B   6     -30.253  24.816 -10.748  0.00  0.00    +0.000 OA
ATOM     45  C2' A   B   6     -29.426  26.771 -11.986  0.00  0.00    +0.000 C 
ATOM     46  C1' A   B   6     -28.387  27.824 -11.605  0.00  0.00    +0.000 C 
ATOM     47  P   C   B   7     -30.345  23.427 -11.560  0.00  0.00    +0.000 P 
ATOM     48  OP2 C   B   7     -28.967  22.868 -11.681  0.00  0.00    +0.000 OA
ATOM     49  O5' C   B   7     -30.821  23.866 -13.016  0.00  0.00    +0.000 OA
ATOM     50  C5' C   B   7     -32.065  24.521 -13.215  0.00  0.00    +0.000 C 
ATOM     51  C4' C   B   7     -32.107  25.228 -14.551  0.00  0.00    +0.000 C 
ATOM     52  O4' C   B   7     -30.941  26.073 -14.693  0.00  0.00    +0.000 OA
ATOM     53  C3' C   B   7     -32.071  24.334 -15.778  0.00  0.00    +0.000 C 
ATOM     54  O3' C   B   7     -33.360  23.836 -16.094  0.00  0.00    +0.000 OA
ATOM     55  C2' C   B   7     -31.508  25.254 -16.856  0.00  0.00    +0.000 C 
ATOM     56  C1' C   B   7     -30.542  26.129 -16.050  0.00  0.00    +0.000 C 
ATOM     57  P   U   B   8     -33.685  22.420 -16.694  0.00  0.00    +0.000 P 
ATOM     58  OP1 U   B   8     -33.455  22.466 -18.161  0.00  0.00    +0.000 OA
ATOM     59  O5' U   B   8     -32.568  21.496 -16.045  0.00  0.00    +0.000 OA
ATOM     60  C5' U   B   8     -31.625  20.867 -16.898  0.00  0.00    +0.000 C 
ATOM     61  C4' U   B   8     -31.766  19.370 -16.830  0.00  0.00    +0.000 C 
ATOM     62  O4' U   B   8     -33.064  18.991 -17.358  0.00  0.00    +0.000 OA
ATOM     63  C3' U   B   8     -30.734  18.605 -17.645  0.00  0.00    +0.000 C 
ATOM     64  O3' U   B   8     -30.389  17.404 -16.975  0.00  0.00    +0.000 OA
ATOM     65  C2' U   B   8     -31.478  18.290 -18.936  0.00  0.00    +0.000 C 
ATOM     66  C1' U   B   8     -32.902  18.073 -18.419  0.00  0.00    +0.000 C 
ATOM     67  P   A   B   9     -29.202  17.406 -15.931  0.00  0.00    +0.000 P 
ATOM     68  OP1 A   B   9     -28.957  16.013 -15.472  0.00  0.00    +0.000 OA
ATOM     69  O5' A   B   9     -27.972  17.870 -16.822  0.00  0.00    +0.000 OA
ATOM     70  C5' A   B   9     -27.321  16.929 -17.642  0.00  0.00    +0.000 C 
ATOM     71  C4' A   B   9     -26.228  17.572 -18.452  0.00  0.00    +0.000 C 
ATOM     72  O4' A   B   9     -26.820  18.174 -19.637  0.00  0.00    +0.000 OA
ATOM     73  C3' A   B   9     -25.458  18.673 -17.724  0.00  0.00    +0.000 C 
ATOM     74  O3' A   B   9     -24.073  18.451 -17.828  0.00  0.00    +0.000 OA
ATOM     75  C2' A   B   9     -25.861  19.972 -18.429  0.00  0.00    +0.000 C 
ATOM     76  C1' A   B   9     -26.379  19.505 -19.780  0.00  0.00    +0.000 C 
ATOM     77  P   U   B  10     -23.369  17.643 -16.704  0.00  0.00    +0.000 P 
ATOM     78  OP1 U   B  10     -22.746  16.446 -17.279  0.00  0.00    +0.000 OA
ATOM     79  O5' U   B  10     -22.211  18.667 -16.307  0.00  0.00    +0.000 OA
ATOM     80  C5' U   B  10     -22.434  19.703 -15.346  0.00  0.00    +0.000 C 
ATOM     81  C4' U   B  10     -22.170  19.175 -13.961  0.00  0.00    +0.000 C 
ATOM     82  O4' U   B  10     -20.919  18.441 -13.975  0.00  0.00    +0.000 OA
ATOM     83  C3' U   B  10     -22.036  20.238 -12.869  0.00  0.00    +0.000 C 
ATOM     84  O3' U   B  10     -22.517  19.699 -11.632  0.00  0.00    +0.000 OA
ATOM     85  C2' U   B  10     -20.526  20.429 -12.794  0.00  0.00    +0.000 C 
ATOM     86  C1' U   B  10     -20.040  18.998 -13.030  0.00  0.00    +0.000 C 
ATOM     87  P   U   B  11     -23.570  20.546 -10.750  0.00  0.00    +0.000 P 
ATOM     88  OP2 U   B  11     -23.489  21.962 -11.167  0.00  0.00    +0.000 OA
ATOM     89  O5' U   B  11     -23.015  20.442  -9.259  0.00  0.00    +0.000 OA
ATOM     90  C5' U   B  11     -21.848  21.136  -8.875  0.00  0.00    +0.000 C 
ATOM     91  C4' U   B  11     -21.084  20.366  -7.830  0.00  0.00    +0.000 C 
ATOM     92  O4' U   B  11     -20.297  19.326  -8.464  0.00  0.00    +0.000 OA
ATOM     93  C3' U   B  11     -20.066  21.170  -7.036  0.00  0.00    +0.000 C 
ATOM     94  O3' U   B  11     -20.665  21.911  -5.989  0.00  0.00    +0.000 OA
ATOM     95  C2' U   B  11     -19.110  20.092  -6.548  0.00  0.00    +0.000 C 
ATOM     96  C1' U   B  11     -19.086  19.145  -7.761  0.00  0.00    +0.000 C 
ATOM     97  P   U   B  12     -20.075  23.335  -5.576  0.00  0.00    +0.000 P 
ATOM     98  OP1 U   B  12     -21.046  23.992  -4.668  0.00  0.00    +0.000 OA
ATOM     99  OP2 U   B  12     -19.634  24.029  -6.806  0.00  0.00    +0.000 OA
ATOM    100  O5' U   B  12     -18.786  22.952  -4.728  0.00  0.00    +0.000 OA
ATOM    101  C5' U   B  12     -18.899  22.240  -3.504  0.00  0.00    +0.000 C 
ATOM    102  C4' U   B  12     -17.560  21.759  -3.008  0.00  0.00    +0.000 C 
ATOM    103  O4' U   B  12     -17.018  20.767  -3.919  0.00  0.00    +0.000 OA
ATOM    104  C3' U   B  12     -16.466  22.807  -2.927  0.00  0.00    +0.000 C 
ATOM    105  O3' U   B  12     -16.573  23.649  -1.794  0.00  0.00    +0.000 OA
ATOM    106  C2' U   B  12     -15.208  21.952  -2.939  0.00  0.00    +0.000 C 
ATOM    107  C1' U   B  12     -15.606  20.866  -3.946  0.00  0.00    +0.000 C 
ATOM    108  P   C   B  13     -16.095  25.172  -1.888  0.00  0.00    +0.000 P 
ATOM    109  OP2 C   B  13     -16.583  25.754  -3.161  0.00  0.00    +0.000 OA
ATOM    110  O5' C   B  13     -14.507  25.048  -1.983  0.00  0.00    +0.000 OA
ATOM    111  C5' C   B  13     -13.763  24.505  -0.906  0.00  0.00    +0.000 C 
ATOM    112  C4' C   B  13     -12.328  24.224  -1.285  0.00  0.00    +0.000 C 
ATOM    113  O4' C   B  13     -12.268  23.302  -2.403  0.00  0.00    +0.000 OA
ATOM    114  C3' C   B  13     -11.506  25.405  -1.765  0.00  0.00    +0.000 C 
ATOM    115  O3' C   B  13     -11.086  26.269  -0.727  0.00  0.00    +0.000 OA
ATOM    116  C2' C   B  13     -10.353  24.700  -2.464  0.00  0.00    +0.000 C 
ATOM    117  C1' C   B  13     -11.086  23.541  -3.146  0.00  0.00    +0.000 C 
ATOM    118  P   A   B  14     -10.820  27.831  -1.049  0.00  0.00    +0.000 P 
ATOM    119  OP2 A   B  14     -11.934  28.351  -1.879  0.00  0.00    +0.000 OA
ATOM    120  O5' A   B  14      -9.506  27.806  -1.958  0.00  0.00    +0.000 OA
ATOM    121  C5' A   B  14      -8.276  27.349  -1.429  0.00  0.00    +0.000 C 
ATOM    122  C4' A   B  14      -7.236  27.160  -2.511  0.00  0.00    +0.000 C 
ATOM    123  O4' A   B  14      -7.754  26.308  -3.558  0.00  0.00    +0.000 OA
ATOM    124  C3' A   B  14      -6.795  28.408  -3.250  0.00  0.00    +0.000 C 
ATOM    125  O3' A   B  14      -5.863  29.184  -2.514  0.00  0.00    +0.000 OA
ATOM    126  C2' A   B  14      -6.214  27.832  -4.528  0.00  0.00    +0.000 C 
ATOM    127  C1' A   B  14      -7.165  26.661  -4.794  0.00  0.00    +0.000 C 
ATOM    128  P   U   B  15      -5.886  30.798  -2.628  0.00  0.00    +0.000 P 
ATOM    129  OP1 U   B  15      -4.980  31.311  -1.576  0.00  0.00    +0.000 OA
ATOM    130  O5' U   B  15      -5.224  31.091  -4.045  0.00  0.00    +0.000 OA
ATOM    131  C5' U   B  15      -3.990  30.495  -4.413  0.00  0.00    +0.000 C 
ATOM    132  C4' U   B  15      -3.734  30.639  -5.893  0.00  0.00    +0.000 C 
ATOM    133  O4' U   B  15      -4.889  30.145  -6.633  0.00  0.00    +0.000 OA
ATOM    134  C3' U   B  15      -3.507  32.074  -6.369  0.00  0.00    +0.000 C 
ATOM    135  O3' U   B  15      -2.563  32.075  -7.424  0.00  0.00    +0.000 OA
ATOM    136  C2' U   B  15      -4.865  32.474  -6.900  0.00  0.00    +0.000 C 
ATOM    137  C1' U   B  15      -5.369  31.152  -7.489  0.00  0.00    +0.000 C 
ATOM    138  P   C   B  16      -1.143  32.588  -7.202  0.00  0.00    +0.000 P 
ATOM    139  OP2 C   B  16      -1.167  34.063  -7.149  0.00  0.00    +0.000 OA
ATOM    140  O5' C   B  16      -0.469  32.161  -8.575  0.00  0.00    +0.000 OA
ATOM    141  C5' C   B  16      -0.340  33.059  -9.652  0.00  0.00    +0.000 C 
ATOM    142  C4' C   B  16       0.669  32.535 -10.634  0.00  0.00    +0.000 C 
ATOM    143  O4' C   B  16       1.896  32.225  -9.932  0.00  0.00    +0.000 OA
ATOM    144  C3' C   B  16       0.294  31.237 -11.334  0.00  0.00    +0.000 C 
ATOM    145  O3' C   B  16      -0.561  31.435 -12.445  0.00  0.00    +0.000 OA
ATOM    146  C2' C   B  16       1.654  30.669 -11.708  0.00  0.00    +0.000 C 
ATOM    147  C1' C   B  16       2.491  31.074 -10.495  0.00  0.00    +0.000 C 
ATOM    148  P   C   B  17      -1.750  30.395 -12.774  0.00  0.00    +0.000 P 
ATOM    149  OP1 C   B  17      -2.495  30.910 -13.936  0.00  0.00    +0.000 OA
ATOM    150  O5' C   B  17      -0.958  29.087 -13.231  0.00  0.00    +0.000 OA
ATOM    151  C5' C   B  17      -0.137  29.103 -14.392  0.00  0.00    +0.000 C 
ATOM    152  C4' C   B  17       0.628  27.810 -14.532  0.00  0.00    +0.000 C 
ATOM    153  O4' C   B  17       1.529  27.656 -13.410  0.00  0.00    +0.000 OA
ATOM    154  C3' C   B  17      -0.211  26.544 -14.507  0.00  0.00    +0.000 C 
ATOM    155  O3' C   B  17      -0.806  26.256 -15.766  0.00  0.00    +0.000 OA
ATOM    156  C2' C   B  17       0.795  25.496 -14.060  0.00  0.00    +0.000 C 
ATOM    157  C1' C   B  17       1.628  26.290 -13.055  0.00  0.00    +0.000 C 
ATOM    158  P   G   B  18      -2.111  25.338 -15.819  0.00  0.00    +0.000 P 
ATOM    159  OP1 G   B  18      -2.229  24.768 -17.191  0.00  0.00    +0.000 OA
ATOM    160  O5' G   B  18      -1.714  24.153 -14.815  0.00  0.00    +0.000 OA
ATOM    161  C5' G   B  18      -2.703  23.362 -14.186  0.00  0.00    +0.000 C 
ATOM    162  C4' G   B  18      -2.523  23.361 -12.689  0.00  0.00    +0.000 C 
ATOM    163  O4' G   B  18      -3.084  24.574 -12.133  0.00  0.00    +0.000 OA
ATOM    164  C3' G   B  18      -3.231  22.244 -11.943  0.00  0.00    +0.000 C 
ATOM    165  O3' G   B  18      -2.503  21.029 -11.970  0.00  0.00    +0.000 OA
ATOM    166  C2' G   B  18      -3.391  22.839 -10.552  0.00  0.00    +0.000 C 
ATOM    167  C1' G   B  18      -3.699  24.299 -10.891  0.00  0.00    +0.000 C 
ATOM    168  P   A   B  19      -3.283  19.627 -12.015  0.00  0.00    +0.000 P 
ATOM    169  OP2 A   B  19      -4.430  19.754 -12.950  0.00  0.00    +0.000 OA
ATOM    170  O5' A   B  19      -3.859  19.455 -10.540  0.00  0.00    +0.000 OA
ATOM    171  C5' A   B  19      -2.988  19.324  -9.421  0.00  0.00    +0.000 C 
ATOM    172  C4' A   B  19      -3.762  19.116  -8.142  0.00  0.00    +0.000 C 
ATOM    173  O4' A   B  19      -4.531  20.306  -7.830  0.00  0.00    +0.000 OA
ATOM    174  C3' A   B  19      -4.799  18.006  -8.180  0.00  0.00    +0.000 C 
ATOM    175  O3' A   B  19      -4.233  16.713  -7.992  0.00  0.00    +0.000 OA
ATOM    176  C2' A   B  19      -5.755  18.421  -7.070  0.00  0.00    +0.000 C 
ATOM    177  C1' A   B  19      -5.763  19.941  -7.240  0.00  0.00    +0.000 C 
ATOM    178  P   A   B  20      -4.857  15.438  -8.765  0.00  0.00    +0.000 P 
ATOM    179  OP2 A   B  20      -5.247  15.851 -10.136  0.00  0.00    +0.000 OA
ATOM    180  O5' A   B  20      -6.190  15.115  -7.951  0.00  0.00    +0.000 OA
ATOM    181  C5' A   B  20      -6.127  14.696  -6.594  0.00  0.00    +0.000 C 
ATOM    182  C4' A   B  20      -7.481  14.759  -5.931  0.00  0.00    +0.000 C 
ATOM    183  O4' A   B  20      -7.973  16.125  -5.931  0.00  0.00    +0.000 OA
ATOM    184  C3' A   B  20      -8.593  13.976  -6.611  0.00  0.00    +0.000 C 
ATOM    185  O3' A   B  20      -8.553  12.583  -6.344  0.00  0.00    +0.000 OA
ATOM    186  C2' A   B  20      -9.836  14.665  -6.062  0.00  0.00    +0.000 C 
ATOM    187  C1' A   B  20      -9.382  16.125  -6.058  0.00  0.00    +0.000 C 
ATOM    188  P   A   B  21      -9.043  11.536  -7.469  0.00  0.00    +0.000 P 
ATOM    189  OP2 A   B  21      -8.457  11.933  -8.772  0.00  0.00    +0.000 OA
ATOM    190  O5' A   B  21     -10.621  11.758  -7.554  0.00  0.00    +0.000 OA
ATOM    191  C5' A   B  21     -11.458  11.420  -6.460  0.00  0.00    +0.000 C 
ATOM    192  C4' A   B  21     -12.837  12.023  -6.606  0.00  0.00    +0.000 C 
ATOM    193  O4' A   B  21     -12.739  13.460  -6.778  0.00  0.00    +0.000 OA
ATOM    194  C3' A   B  21     -13.644  11.574  -7.814  0.00  0.00    +0.000 C 
ATOM    195  O3' A   B  21     -14.236  10.294  -7.663  0.00  0.00    +0.000 OA
ATOM    196  C2' A   B  21     -14.661  12.698  -7.936  0.00  0.00    +0.000 C 
ATOM    197  C1' A   B  21     -13.792  13.912  -7.609  0.00  0.00    +0.000 C 
ATOM    198  P   C   B  22     -14.512   9.385  -8.969  0.00  0.00    +0.000 P 
ATOM    199  OP2 C   B  22     -13.289   9.393  -9.814  0.00  0.00    +0.000 OA
ATOM    200  O5' C   B  22     -15.655  10.166  -9.760  0.00  0.00    +0.000 OA
ATOM    201  C5' C   B  22     -16.933  10.358  -9.183  0.00  0.00    +0.000 C 
ATOM    202  C4' C   B  22     -17.833  11.180 -10.076  0.00  0.00    +0.000 C 
ATOM    203  O4' C   B  22     -17.281  12.508 -10.263  0.00  0.00    +0.000 OA
ATOM    204  C3' C   B  22     -18.011  10.665 -11.491  0.00  0.00    +0.000 C 
ATOM    205  O3' C   B  22     -18.929   9.581 -11.573  0.00  0.00    +0.000 OA
ATOM    206  C2' C   B  22     -18.485  11.911 -12.224  0.00  0.00    +0.000 C 
ATOM    207  C1' C   B  22     -17.639  12.996 -11.544  0.00  0.00    +0.000 C 
ATOM    208  P   U   B  23     -18.698   8.400 -12.653  0.00  0.00    +0.000 P 
ATOM    209  OP2 U   B  23     -17.243   8.112 -12.717  0.00  0.00    +0.000 OA
ATOM    210  O5' U   B  23     -19.126   9.066 -14.035  0.00  0.00    +0.000 OA
ATOM    211  C5' U   B  23     -20.469   9.452 -14.274  0.00  0.00    +0.000 C 
ATOM    212  C4' U   B  23     -20.636  10.074 -15.639  0.00  0.00    +0.000 C 
ATOM    213  O4' U   B  23     -19.986  11.373 -15.675  0.00  0.00    +0.000 OA
ATOM    214  C3' U   B  23     -20.001   9.322 -16.790  0.00  0.00    +0.000 C 
ATOM    215  O3' U   B  23     -20.776   8.210 -17.223  0.00  0.00    +0.000 OA
ATOM    216  C2' U   B  23     -19.853  10.409 -17.840  0.00  0.00    +0.000 C 
ATOM    217  C1' U   B  23     -19.471  11.612 -16.971  0.00  0.00    +0.000 C 
ATOM    218  P   U   B  24     -20.047   6.851 -17.715  0.00  0.00    +0.000 P 
ATOM    219  OP1 U   B  24     -21.105   5.865 -18.040  0.00  0.00    +0.000 OA
ATOM    220  O5' U   B  24     -19.328   7.280 -19.071  0.00  0.00    +0.000 OA
ATOM    221  C5' U   B  24     -20.084   7.701 -20.195  0.00  0.00    +0.000 C 
ATOM    222  C4' U   B  24     -19.210   7.980 -21.391  0.00  0.00    +0.000 C 
ATOM    223  O4' U   B  24     -18.405   9.165 -21.153  0.00  0.00    +0.000 OA
ATOM    224  C3' U   B  24     -18.189   6.912 -21.728  0.00  0.00    +0.000 C 
ATOM    225  O3' U   B  24     -18.755   5.802 -22.415  0.00  0.00    +0.000 OA
ATOM    226  C2' U   B  24     -17.179   7.689 -22.557  0.00  0.00    +0.000 C 
ATOM    227  C1' U   B  24     -17.166   9.037 -21.826  0.00  0.00    +0.000 C 
ATOM    228  P   U   B  25     -18.115   4.327 -22.247  0.00  0.00    +0.000 P 
ATOM    229  OP1 U   B  25     -19.049   3.352 -22.862  0.00  0.00    +0.000 OA
ATOM    230  O5' U   B  25     -16.800   4.397 -23.147  0.00  0.00    +0.000 OA
ATOM    231  C5' U   B  25     -16.885   4.655 -24.539  0.00  0.00    +0.000 C 
ATOM    232  C4' U   B  25     -15.524   4.890 -25.149  0.00  0.00    +0.000 C 
ATOM    233  O4' U   B  25     -14.926   6.085 -24.578  0.00  0.00    +0.000 OA
ATOM    234  C3' U   B  25     -14.488   3.811 -24.896  0.00  0.00    +0.000 C 
ATOM    235  O3' U   B  25     -14.648   2.683 -25.745  0.00  0.00    +0.000 OA
ATOM    236  C2' U   B  25     -13.185   4.559 -25.120  0.00  0.00    +0.000 C 
ATOM    237  C1' U   B  25     -13.519   5.928 -24.515  0.00  0.00    +0.000 C 
ATOM    238  P   U   B  26     -14.227   1.208 -25.235  0.00  0.00    +0.000 P 
ATOM    239  OP1 U   B  26     -14.740   0.218 -26.213  0.00  0.00    +0.000 OA
ATOM    240  O5' U   B  26     -12.634   1.237 -25.341  0.00  0.00    +0.000 OA
ATOM    241  C5' U   B  26     -11.993   1.428 -26.589  0.00  0.00    +0.000 C 
ATOM    242  C4' U   B  26     -10.511   1.669 -26.428  0.00  0.00    +0.000 C 
ATOM    243  O4' U   B  26     -10.288   2.897 -25.681  0.00  0.00    +0.000 OA
ATOM    244  C3' U   B  26      -9.750   0.624 -25.634  0.00  0.00    +0.000 C 
ATOM    245  O3' U   B  26      -9.453  -0.545 -26.385  0.00  0.00    +0.000 OA
ATOM    246  C2' U   B  26      -8.515   1.391 -25.193  0.00  0.00    +0.000 C 
ATOM    247  C1' U   B  26      -9.117   2.769 -24.894  0.00  0.00    +0.000 C 
ATOM    248  P   U   B  27      -9.363  -1.985 -25.655  0.00  0.00    +0.000 P 
ATOM    249  OP1 U   B  27      -9.216  -3.021 -26.705  0.00  0.00    +0.000 OA
ATOM    250  O5' U   B  27      -7.987  -1.890 -24.846  0.00  0.00    +0.000 OA
ATOM    251  C5' U   B  27      -6.757  -1.698 -25.525  0.00  0.00    +0.000 C 
ATOM    252  C4' U   B  27      -5.634  -1.361 -24.572  0.00  0.00    +0.000 C 
ATOM    253  O4' U   B  27      -5.950  -0.146 -23.840  0.00  0.00    +0.000 OA
ATOM    254  C3' U   B  27      -5.357  -2.377 -23.480  0.00  0.00    +0.000 C 
ATOM    255  O3' U   B  27      -4.599  -3.489 -23.937  0.00  0.00    +0.000 OA
ATOM    256  C2' U   B  27      -4.630  -1.538 -22.437  0.00  0.00    +0.000 C 
ATOM    257  C1' U   B  27      -5.387  -0.208 -22.540  0.00  0.00    +0.000 C 
ATOM    258  P   U   B  28      -4.751  -4.935 -23.226  0.00  0.00    +0.000 P 
ATOM    259  OP1 U   B  28      -4.054  -5.932 -24.075  0.00  0.00    +0.000 OA
ATOM    260  O5' U   B  28      -3.918  -4.759 -21.873  0.00  0.00    +0.000 OA
ATOM    261  C5' U   B  28      -2.527  -4.490 -21.901  0.00  0.00    +0.000 C 
ATOM    262  C4' U   B  28      -1.992  -4.172 -20.523  0.00  0.00    +0.000 C 
ATOM    263  O4' U   B  28      -2.613  -2.960 -20.017  0.00  0.00    +0.000 OA
ATOM    264  C3' U   B  28      -2.279  -5.203 -19.448  0.00  0.00    +0.000 C 
ATOM    265  O3' U   B  28      -1.392  -6.311 -19.494  0.00  0.00    +0.000 OA
ATOM    266  C2' U   B  28      -2.155  -4.381 -18.171  0.00  0.00    +0.000 C 
ATOM    267  C1' U   B  28      -2.772  -3.049 -18.612  0.00  0.00    +0.000 C 
ATOM    268  P   A   B  29      -1.915  -7.786 -19.070  0.00  0.00    +0.000 P 
ATOM    269  OP2 A   B  29      -3.301  -7.964 -19.574  0.00  0.00    +0.000 OA
ATOM    270  O5' A   B  29      -1.978  -7.705 -17.473  0.00  0.00    +0.000 OA
ATOM    271  C5' A   B  29      -0.797  -7.526 -16.707  0.00  0.00    +0.000 C 
ATOM    272  C4' A   B  29      -1.116  -7.185 -15.269  0.00  0.00    +0.000 C 
ATOM    273  O4' A   B  29      -1.864  -5.941 -15.212  0.00  0.00    +0.000 OA
ATOM    274  C3' A   B  29      -2.003  -8.175 -14.530  0.00  0.00    +0.000 C 
ATOM    275  O3' A   B  29      -1.295  -9.314 -14.060  0.00  0.00    +0.000 OA
ATOM    276  C2' A   B  29      -2.572  -7.313 -13.411  0.00  0.00    +0.000 C 
ATOM    277  C1' A   B  29      -2.782  -5.983 -14.137  0.00  0.00    +0.000 C 
ATOM    278  P   A   B  30      -2.048 -10.733 -13.916  0.00  0.00    +0.000 P 
ATOM    279  OP2 A   B  30      -2.930 -10.928 -15.096  0.00  0.00    +0.000 OA
ATOM    280  O5' A   B  30      -2.982 -10.535 -12.632  0.00  0.00    +0.000 OA
ATOM    281  C5' A   B  30      -2.418 -10.321 -11.349  0.00  0.00    +0.000 C 
ATOM    282  C4' A   B  30      -3.461  -9.846 -10.358  0.00  0.00    +0.000 C 
ATOM    283  O4' A   B  30      -4.096  -8.637 -10.851  0.00  0.00    +0.000 OA
ATOM    284  C3' A   B  30      -4.623 -10.794 -10.106  0.00  0.00    +0.000 C 
ATOM    285  O3' A   B  30      -4.299 -11.838  -9.198  0.00  0.00    +0.000 OA
ATOM    286  C2' A   B  30      -5.693  -9.845  -9.580  0.00  0.00    +0.000 C 
ATOM    287  C1' A   B  30      -5.450  -8.604 -10.442  0.00  0.00    +0.000 C 
ATOM    288  P   A   B  31      -5.078 -13.241  -9.261  0.00  0.00    +0.000 P 
ATOM    289  OP2 A   B  31      -5.315 -13.595 -10.686  0.00  0.00    +0.000 OA
ATOM    290  O5' A   B  31      -6.492 -12.923  -8.592  0.00  0.00    +0.000 OA
ATOM    291  C5' A   B  31      -6.586 -12.559  -7.225  0.00  0.00    +0.000 C 
ATOM    292  C4' A   B  31      -7.979 -12.082  -6.879  0.00  0.00    +0.000 C 
ATOM    293  O4' A   B  31      -8.316 -10.918  -7.679  0.00  0.00    +0.000 OA
ATOM    294  C3' A   B  31      -9.105 -13.065  -7.165  0.00  0.00    +0.000 C 
ATOM    295  O3' A   B  31      -9.252 -14.050  -6.151  0.00  0.00    +0.000 OA
ATOM    296  C2' A   B  31     -10.311 -12.142  -7.291  0.00  0.00    +0.000 C 
ATOM    297  C1' A   B  31      -9.693 -10.932  -7.997  0.00  0.00    +0.000 C 
ATOM    298  P   A   B  32      -9.814 -15.516  -6.508  0.00  0.00    +0.000 P 
ATOM    299  OP2 A   B  32      -9.237 -15.937  -7.810  0.00  0.00    +0.000 OA
ATOM    300  O5' A   B  32     -11.378 -15.283  -6.714  0.00  0.00    +0.000 OA
ATOM    301  C5' A   B  32     -12.202 -14.866  -5.638  0.00  0.00    +0.000 C 
ATOM    302  C4' A   B  32     -13.581 -14.484  -6.123  0.00  0.00    +0.000 C 
ATOM    303  O4' A   B  32     -13.488 -13.359  -7.036  0.00  0.00    +0.000 OA
ATOM    304  C3' A   B  32     -14.316 -15.551  -6.921  0.00  0.00    +0.000 C 
ATOM    305  O3' A   B  32     -14.939 -16.528  -6.098  0.00  0.00    +0.000 OA
ATOM    306  C2' A   B  32     -15.304 -14.721  -7.733  0.00  0.00    +0.000 C 
ATOM    307  C1' A   B  32     -14.461 -13.482  -8.055  0.00  0.00    +0.000 C 
ATOM    308  P   U   B  33     -15.046 -18.064  -6.589  0.00  0.00    +0.000 P 
ATOM    309  OP2 U   B  33     -13.761 -18.437  -7.238  0.00  0.00    +0.000 OA
ATOM    310  O5' U   B  33     -16.173 -18.026  -7.717  0.00  0.00    +0.000 OA
ATOM    311  C5' U   B  33     -17.513 -17.689  -7.401  0.00  0.00    +0.000 C 
ATOM    312  C4' U   B  33     -18.347 -17.486  -8.643  0.00  0.00    +0.000 C 
ATOM    313  O4' U   B  33     -17.836 -16.358  -9.405  0.00  0.00    +0.000 OA
ATOM    314  C3' U   B  33     -18.341 -18.632  -9.638  0.00  0.00    +0.000 C 
ATOM    315  O3' U   B  33     -19.207 -19.695  -9.271  0.00  0.00    +0.000 OA
ATOM    316  C2' U   B  33     -18.747 -17.934 -10.931  0.00  0.00    +0.000 C 
ATOM    317  C1' U   B  33     -18.012 -16.594 -10.787  0.00  0.00    +0.000 C 
ATOM    318  P   A   B  34     -18.819 -21.229  -9.630  0.00  0.00    +0.000 P 
ATOM    319  OP2 A   B  34     -17.359 -21.399  -9.416  0.00  0.00    +0.000 OA
ATOM    320  O5' A   B  34     -19.101 -21.339 -11.197  0.00  0.00    +0.000 OA
ATOM    321  C5' A   B  34     -20.426 -21.288 -11.701  0.00  0.00    +0.000 C 
ATOM    322  C4' A   B  34     -20.444 -21.129 -13.204  0.00  0.00    +0.000 C 
ATOM    323  O4' A   B  34     -19.785 -19.891 -13.578  0.00  0.00    +0.000 OA
ATOM    324  C3' A   B  34     -19.700 -22.189 -14.001  0.00  0.00    +0.000 C 
ATOM    325  O3' A   B  34     -20.429 -23.399 -14.154  0.00  0.00    +0.000 OA
ATOM    326  C2' A   B  34     -19.441 -21.467 -15.315  0.00  0.00    +0.000 C 
ATOM    327  C1' A   B  34     -19.131 -20.053 -14.821  0.00  0.00    +0.000 C 
ATOM    328  P   A   B  35     -19.662 -24.822 -14.204  0.00  0.00    +0.000 P 
ATOM    329  OP1 A   B  35     -20.691 -25.887 -14.244  0.00  0.00    +0.000 OA
ATOM    330  O5' A   B  35     -18.895 -24.808 -15.606  0.00  0.00    +0.000 OA
ATOM    331  C5' A   B  35     -19.601 -25.020 -16.822  0.00  0.00    +0.000 C 
ATOM    332  C4' A   B  35     -18.844 -24.486 -18.016  0.00  0.00    +0.000 C 
ATOM    333  O4' A   B  35     -18.284 -23.183 -17.709  0.00  0.00    +0.000 OA
ATOM    334  C3' A   B  35     -17.637 -25.291 -18.473  0.00  0.00    +0.000 C 
ATOM    335  O3' A   B  35     -17.983 -26.437 -19.237  0.00  0.00    +0.000 OA
ATOM    336  C2' A   B  35     -16.857 -24.255 -19.268  0.00  0.00    +0.000 C 
ATOM    337  C1' A   B  35     -17.072 -23.003 -18.418  0.00  0.00    +0.000 C 
ATOM    338  P   U   B  36     -17.056 -27.763 -19.216  0.00  0.00    +0.000 P 
ATOM    339  OP1 U   B  36     -17.651 -28.752 -20.146  0.00  0.00    +0.000 OA
ATOM    340  O5' U   B  36     -15.662 -27.273 -19.826  0.00  0.00    +0.000 OA
ATOM    341  C5' U   B  36     -15.551 -26.905 -21.192  0.00  0.00    +0.000 C 
ATOM    342  C4' U   B  36     -14.164 -26.394 -21.519  0.00  0.00    +0.000 C 
ATOM    343  O4' U   B  36     -13.864 -25.220 -20.717  0.00  0.00    +0.000 OA
ATOM    344  C3' U   B  36     -13.021 -27.343 -21.215  0.00  0.00    +0.000 C 
ATOM    345  O3' U   B  36     -12.847 -28.334 -22.216  0.00  0.00    +0.000 OA
ATOM    346  C2' U   B  36     -11.833 -26.396 -21.092  0.00  0.00    +0.000 C 
ATOM    347  C1' U   B  36     -12.483 -25.190 -20.405  0.00  0.00    +0.000 C 
ATOM    348  P   A   B  37     -12.220 -29.781 -21.846  0.00  0.00    +0.000 P 
ATOM    349  OP1 A   B  37     -12.437 -30.683 -23.001  0.00  0.00    +0.000 OA
ATOM    350  O5' A   B  37     -10.657 -29.490 -21.732  0.00  0.00    +0.000 OA
ATOM    351  C5' A   B  37      -9.912 -29.107 -22.876  0.00  0.00    +0.000 C 
ATOM    352  C4' A   B  37      -8.492 -28.739 -22.508  0.00  0.00    +0.000 C 
ATOM    353  O4' A   B  37      -8.489 -27.574 -21.645  0.00  0.00    +0.000 OA
ATOM    354  C3' A   B  37      -7.719 -29.782 -21.712  0.00  0.00    +0.000 C 
ATOM    355  O3' A   B  37      -7.197 -30.821 -22.528  0.00  0.00    +0.000 OA
ATOM    356  C2' A   B  37      -6.640 -28.943 -21.042  0.00  0.00    +0.000 C 
ATOM    357  C1' A   B  37      -7.411 -27.656 -20.735  0.00  0.00    +0.000 C 
ATOM    358  P   U   B  38      -7.060 -32.330 -21.960  0.00  0.00    +0.000 P 
ATOM    359  OP1 U   B  38      -6.702 -33.207 -23.096  0.00  0.00    +0.000 OA
ATOM    360  O5' U   B  38      -5.802 -32.231 -20.977  0.00  0.00    +0.000 OA
ATOM    361  C5' U   B  38      -4.525 -31.859 -21.469  0.00  0.00    +0.000 C 
ATOM    362  C4' U   B  38      -3.574 -31.525 -20.336  0.00  0.00    +0.000 C 
ATOM    363  O4' U   B  38      -4.121 -30.443 -19.539  0.00  0.00    +0.000 OA
ATOM    364  C3' U   B  38      -3.331 -32.636 -19.330  0.00  0.00    +0.000 C 
ATOM    365  O3' U   B  38      -2.344 -33.556 -19.786  0.00  0.00    +0.000 OA
ATOM    366  C2' U   B  38      -2.896 -31.872 -18.080  0.00  0.00    +0.000 C 
ATOM    367  C1' U   B  38      -3.733 -30.587 -18.192  0.00  0.00    +0.000 C 
ATOM    368  P   U   B  39      -2.582 -35.132 -19.864  0.00  0.00    +0.000 P 
ATOM    369  OP2 U   B  39      -2.729 -35.523 -21.280  0.00  0.00    +0.000 OA
ATOM    370  O5' U   B  39      -3.992 -35.353 -19.157  0.00  0.00    +0.000 OA
ATOM    371  C5' U   B  39      -4.643 -36.589 -19.316  0.00  0.00    +0.000 C 
ATOM    372  C4' U   B  39      -6.122 -36.473 -19.045  0.00  0.00    +0.000 C 
ATOM    373  O4' U   B  39      -6.866 -37.005 -20.173  0.00  0.00    +0.000 OA
ATOM    374  C3' U   B  39      -6.638 -37.247 -17.852  0.00  0.00    +0.000 C 
ATOM    375  O3' U   B  39      -6.422 -36.573 -16.619  0.00  0.00    +0.000 OA
ATOM    376  C2' U   B  39      -8.112 -37.439 -18.201  0.00  0.00    +0.000 C 
ATOM    377  C1' U   B  39      -8.034 -37.647 -19.714  0.00  0.00    +0.000 C 
ATOM    378  P   C   B  40      -6.009 -37.487 -15.435  0.00  0.00    +0.000 P 
ATOM    379  OP2 C   B  40      -6.754 -38.767 -15.509  0.00  0.00    +0.000 OA
ATOM    380  O5' C   B  40      -6.587 -36.683 -14.173  0.00  0.00    +0.000 OA
ATOM    381  C5' C   B  40      -7.432 -37.345 -13.266  0.00  0.00    +0.000 C 
ATOM    382  C4' C   B  40      -6.827 -37.385 -11.887  0.00  0.00    +0.000 C 
ATOM    383  O4' C   B  40      -5.505 -37.990 -11.933  0.00  0.00    +0.000 OA
ATOM    384  C3' C   B  40      -6.593 -36.047 -11.217  0.00  0.00    +0.000 C 
ATOM    385  O3' C   B  40      -7.769 -35.486 -10.673  0.00  0.00    +0.000 OA
ATOM    386  C2' C   B  40      -5.539 -36.387 -10.178  0.00  0.00    +0.000 C 
ATOM    387  C1' C   B  40      -4.679 -37.394 -10.950  0.00  0.00    +0.000 C 
ATOM    388  P   U   B  41      -7.898 -33.955 -10.475  0.00  0.00    +0.000 P 
ATOM    389  OP2 U   B  41      -6.729 -33.301 -11.120  0.00  0.00    +0.000 OA
ATOM    390  O5' U   B  41      -7.731 -33.794  -8.895  0.00  0.00    +0.000 OA
ATOM    391  C5' U   B  41      -8.657 -34.395  -8.003  0.00  0.00    +0.000 C 
ATOM    392  C4' U   B  41      -8.283 -34.111  -6.571  0.00  0.00    +0.000 C 
ATOM    393  O4' U   B  41      -7.129 -34.904  -6.194  0.00  0.00    +0.000 OA
ATOM    394  C3' U   B  41      -7.862 -32.681  -6.283  0.00  0.00    +0.000 C 
ATOM    395  O3' U   B  41      -8.969 -31.812  -6.112  0.00  0.00    +0.000 OA
ATOM    396  C2' U   B  41      -7.008 -32.833  -5.031  0.00  0.00    +0.000 C 
ATOM    397  C1' U   B  41      -6.305 -34.166  -5.315  0.00  0.00    +0.000 C 
ATOM    398  P   U   B  42      -8.978 -30.377  -6.809  0.00  0.00    +0.000 P 
ATOM    399  OP2 U   B  42      -8.442 -30.518  -8.185  0.00  0.00    +0.000 OA
ATOM    400  O5' U   B  42      -7.918 -29.547  -5.943  0.00  0.00    +0.000 OA
ATOM    401  C5' U   B  42      -8.164 -29.252  -4.578  0.00  0.00    +0.000 C 
ATOM    402  C4' U   B  42      -6.952 -28.633  -3.927  0.00  0.00    +0.000 C 
ATOM    403  O4' U   B  42      -5.865 -29.595  -3.885  0.00  0.00    +0.000 OA
ATOM    404  C3' U   B  42      -6.352 -27.439  -4.648  0.00  0.00    +0.000 C 
ATOM    405  O3' U   B  42      -7.055 -26.230  -4.412  0.00  0.00    +0.000 OA
ATOM    406  C2' U   B  42      -4.929 -27.424  -4.112  0.00  0.00    +0.000 C 
ATOM    407  C1' U   B  42      -4.627 -28.926  -4.031  0.00  0.00    +0.000 C 
ATOM    408  P   A   B  43      -7.431 -25.266  -5.644  0.00  0.00    +0.000 P 
ATOM    409  OP2 A   B  43      -8.180 -26.051  -6.654  0.00  0.00    +0.000 OA
ATOM    410  O5' A   B  43      -6.015 -24.876  -6.278  0.00  0.00    +0.000 OA
ATOM    411  C5' A   B  43      -5.097 -24.057  -5.571  0.00  0.00    +0.000 C 
ATOM    412  C4' A   B  43      -3.711 -24.138  -6.170  0.00  0.00    +0.000 C 
ATOM    413  O4' A   B  43      -3.281 -25.521  -6.234  0.00  0.00    +0.000 OA
ATOM    414  C3' A   B  43      -3.579 -23.651  -7.608  0.00  0.00    +0.000 C 
ATOM    415  O3' A   B  43      -3.480 -22.242  -7.716  0.00  0.00    +0.000 OA
ATOM    416  C2' A   B  43      -2.323 -24.371  -8.071  0.00  0.00    +0.000 C 
ATOM    417  C1' A   B  43      -2.493 -25.727  -7.386  0.00  0.00    +0.000 C 
ATOM    418  P   C   B  44      -4.180 -21.483  -8.957  0.00  0.00    +0.000 P 
ATOM    419  OP2 C   B  44      -5.603 -21.909  -9.033  0.00  0.00    +0.000 OA
ATOM    420  O5' C   B  44      -3.432 -22.051 -10.250  0.00  0.00    +0.000 OA
ATOM    421  C5' C   B  44      -2.051 -21.812 -10.468  0.00  0.00    +0.000 C 
ATOM    422  C4' C   B  44      -1.530 -22.634 -11.623  0.00  0.00    +0.000 C 
ATOM    423  O4' C   B  44      -1.745 -24.047 -11.362  0.00  0.00    +0.000 OA
ATOM    424  C3' C   B  44      -2.212 -22.390 -12.959  0.00  0.00    +0.000 C 
ATOM    425  O3' C   B  44      -1.688 -21.253 -13.632  0.00  0.00    +0.000 OA
ATOM    426  C2' C   B  44      -1.951 -23.694 -13.705  0.00  0.00    +0.000 C 
ATOM    427  C1' C   B  44      -2.039 -24.721 -12.569  0.00  0.00    +0.000 C 
ATOM    428  P   U   B  45      -2.646 -20.309 -14.514  0.00  0.00    +0.000 P 
ATOM    429  OP1 U   B  45      -1.864 -19.089 -14.836  0.00  0.00    +0.000 OA
ATOM    430  O5' U   B  45      -2.877 -21.126 -15.871  0.00  0.00    +0.000 OA
ATOM    431  C5' U   B  45      -1.789 -21.466 -16.721  0.00  0.00    +0.000 C 
ATOM    432  C4' U   B  45      -2.282 -22.019 -18.037  0.00  0.00    +0.000 C 
ATOM    433  O4' U   B  45      -3.005 -23.255 -17.815  0.00  0.00    +0.000 OA
ATOM    434  C3' U   B  45      -3.269 -21.137 -18.785  0.00  0.00    +0.000 C 
ATOM    435  O3' U   B  45      -2.631 -20.109 -19.528  0.00  0.00    +0.000 OA
ATOM    436  C2' U   B  45      -4.012 -22.140 -19.658  0.00  0.00    +0.000 C 
ATOM    437  C1' U   B  45      -4.083 -23.354 -18.727  0.00  0.00    +0.000 C 
ATOM    438  P   U   B  46      -3.273 -18.652 -19.617  0.00  0.00    +0.000 P 
ATOM    439  OP1 U   B  46      -2.305 -17.779 -20.328  0.00  0.00    +0.000 OA
ATOM    440  O5' U   B  46      -4.544 -18.854 -20.559  0.00  0.00    +0.000 OA
ATOM    441  C5' U   B  46      -4.403 -19.256 -21.914  0.00  0.00    +0.000 C 
ATOM    442  C4' U   B  46      -5.715 -19.732 -22.489  0.00  0.00    +0.000 C 
ATOM    443  O4' U   B  46      -6.191 -20.878 -21.732  0.00  0.00    +0.000 OA
ATOM    444  C3' U   B  46      -6.867 -18.744 -22.425  0.00  0.00    +0.000 C 
ATOM    445  O3' U   B  46      -6.824 -17.777 -23.463  0.00  0.00    +0.000 OA
ATOM    446  C2' U   B  46      -8.083 -19.655 -22.497  0.00  0.00    +0.000 C 
ATOM    447  C1' U   B  46      -7.605 -20.853 -21.664  0.00  0.00    +0.000 C 
ATOM    448  P   U   B  47      -7.474 -16.341 -23.245  0.00  0.00    +0.000 P 
ATOM    449  OP1 U   B  47      -7.087 -15.498 -24.403  0.00  0.00    +0.000 OA
ATOM    450  O5' U   B  47      -9.044 -16.620 -23.328  0.00  0.00    +0.000 OA
ATOM    451  C5' U   B  47      -9.644 -17.069 -24.537  0.00  0.00    +0.000 C 
ATOM    452  C4' U   B  47     -11.100 -17.422 -24.340  0.00  0.00    +0.000 C 
ATOM    453  O4' U   B  47     -11.217 -18.522 -23.397  0.00  0.00    +0.000 OA
ATOM    454  C3' U   B  47     -11.974 -16.335 -23.743  0.00  0.00    +0.000 C 
ATOM    455  O3' U   B  47     -12.378 -15.364 -24.695  0.00  0.00    +0.000 OA
ATOM    456  C2' U   B  47     -13.134 -17.130 -23.167  0.00  0.00    +0.000 C 
ATOM    457  C1' U   B  47     -12.409 -18.379 -22.645  0.00  0.00    +0.000 C 
ATOM    458  P   A   B  48     -12.660 -13.861 -24.235  0.00  0.00    +0.000 P 
ATOM    459  OP1 A   B  48     -12.857 -13.048 -25.458  0.00  0.00    +0.000 OA
ATOM    460  O5' A   B  48     -14.058 -13.958 -23.469  0.00  0.00    +0.000 OA
ATOM    461  C5' A   B  48     -15.245 -14.313 -24.163  0.00  0.00    +0.000 C 
ATOM    462  C4' A   B  48     -16.387 -14.571 -23.207  0.00  0.00    +0.000 C 
ATOM    463  O4' A   B  48     -16.060 -15.690 -22.344  0.00  0.00    +0.000 OA
ATOM    464  C3' A   B  48     -16.709 -13.443 -22.242  0.00  0.00    +0.000 C 
ATOM    465  O3' A   B  48     -17.501 -12.421 -22.830  0.00  0.00    +0.000 OA
ATOM    466  C2' A   B  48     -17.413 -14.174 -21.112  0.00  0.00    +0.000 C 
ATOM    467  C1' A   B  48     -16.616 -15.482 -21.060  0.00  0.00    +0.000 C 
ATOM    468  P   U   B  49     -17.363 -10.907 -22.340  0.00  0.00    +0.000 P 
ATOM    469  OP1 U   B  49     -18.139 -10.059 -23.279  0.00  0.00    +0.000 OA
ATOM    470  O5' U   B  49     -18.107 -10.901 -20.931  0.00  0.00    +0.000 OA
ATOM    471  C5' U   B  49     -19.498 -11.168 -20.833  0.00  0.00    +0.000 C 
ATOM    472  C4' U   B  49     -19.933 -11.352 -19.399  0.00  0.00    +0.000 C 
ATOM    473  O4' U   B  49     -19.262 -12.508 -18.827  0.00  0.00    +0.000 OA
ATOM    474  C3' U   B  49     -19.584 -10.219 -18.450  0.00  0.00    +0.000 C 
ATOM    475  O3' U   B  49     -20.477  -9.121 -18.541  0.00  0.00    +0.000 OA
ATOM    476  C2' U   B  49     -19.616 -10.914 -17.097  0.00  0.00    +0.000 C 
ATOM    477  C1' U   B  49     -19.007 -12.278 -17.453  0.00  0.00    +0.000 C 
ATOM    478  P   U   B  50     -19.945  -7.635 -18.268  0.00  0.00    +0.000 P 
ATOM    479  OP2 U   B  50     -18.619  -7.489 -18.917  0.00  0.00    +0.000 OA
ATOM    480  O5' U   B  50     -19.731  -7.601 -16.687  0.00  0.00    +0.000 OA
ATOM    481  C5' U   B  50     -20.828  -7.736 -15.797  0.00  0.00    +0.000 C 
ATOM    482  C4' U   B  50     -20.373  -7.958 -14.375  0.00  0.00    +0.000 C 
ATOM    483  O4' U   B  50     -19.589  -9.181 -14.292  0.00  0.00    +0.000 OA
ATOM    484  C3' U   B  50     -19.453  -6.898 -13.793  0.00  0.00    +0.000 C 
ATOM    485  O3' U   B  50     -20.140  -5.736 -13.362  0.00  0.00    +0.000 OA
ATOM    486  C2' U   B  50     -18.773  -7.653 -12.662  0.00  0.00    +0.000 C 
ATOM    487  C1' U   B  50     -18.585  -9.034 -13.303  0.00  0.00    +0.000 C 
ATOM    488  P   U   B  51     -19.407  -4.315 -13.402  0.00  0.00    +0.000 P 
ATOM    489  OP2 U   B  51     -18.664  -4.205 -14.682  0.00  0.00    +0.000 OA
ATOM    490  O5' U   B  51     -18.339  -4.411 -12.217  0.00  0.00    +0.000 OA
ATOM    491  C5' U   B  51     -18.755  -4.564 -10.870  0.00  0.00    +0.000 C 
ATOM    492  C4' U   B  51     -17.608  -4.960  -9.969  0.00  0.00    +0.000 C 
ATOM    493  O4' U   B  51     -16.995  -6.184 -10.457  0.00  0.00    +0.000 OA
ATOM    494  C3' U   B  51     -16.452  -3.981  -9.885  0.00  0.00    +0.000 C 
ATOM    495  O3' U   B  51     -16.713  -2.890  -9.019  0.00  0.00    +0.000 OA
ATOM    496  C2' U   B  51     -15.314  -4.869  -9.409  0.00  0.00    +0.000 C 
ATOM    497  C1' U   B  51     -15.608  -6.171 -10.167  0.00  0.00    +0.000 C 
ATOM    498  P   U   B  52     -15.980  -1.485  -9.241  0.00  0.00    +0.000 P 
ATOM    499  OP2 U   B  52     -15.902  -1.215 -10.699  0.00  0.00    +0.000 OA
ATOM    500  O5' U   B  52     -14.499  -1.757  -8.708  0.00  0.00    +0.000 OA
ATOM    501  C5' U   B  52     -14.258  -2.090  -7.349  0.00  0.00    +0.000 C 
ATOM    502  C4' U   B  52     -12.825  -2.511  -7.127  0.00  0.00    +0.000 C 
ATOM    503  O4' U   B  52     -12.536  -3.708  -7.896  0.00  0.00    +0.000 OA
ATOM    504  C3' U   B  52     -11.766  -1.521  -7.578  0.00  0.00    +0.000 C 
ATOM    505  O3' U   B  52     -11.559  -0.472  -6.650  0.00  0.00    +0.000 OA
ATOM    506  C2' U   B  52     -10.549  -2.416  -7.762  0.00  0.00    +0.000 C 
ATOM    507  C1' U   B  52     -11.192  -3.682  -8.337  0.00  0.00    +0.000 C 
ATOM    508  P   A   B  53     -11.166   0.993  -7.167  0.00  0.00    +0.000 P 
ATOM    509  OP2 A   B  53     -11.917   1.286  -8.415  0.00  0.00    +0.000 OA
ATOM    510  O5' A   B  53      -9.623   0.833  -7.546  0.00  0.00    +0.000 OA
ATOM    511  C5' A   B  53      -8.654   0.547  -6.552  0.00  0.00    +0.000 C 
ATOM    512  C4' A   B  53      -7.325   0.173  -7.166  0.00  0.00    +0.000 C 
ATOM    513  O4' A   B  53      -7.463  -1.049  -7.936  0.00  0.00    +0.000 OA
ATOM    514  C3' A   B  53      -6.746   1.168  -8.160  0.00  0.00    +0.000 C 
ATOM    515  O3' A   B  53      -6.110   2.276  -7.549  0.00  0.00    +0.000 OA
ATOM    516  C2' A   B  53      -5.796   0.291  -8.963  0.00  0.00    +0.000 C 
ATOM    517  C1' A   B  53      -6.601  -1.005  -9.058  0.00  0.00    +0.000 C 
ATOM    518  P   A   B  54      -6.109   3.702  -8.282  0.00  0.00    +0.000 P 
ATOM    519  OP2 A   B  54      -7.450   3.944  -8.876  0.00  0.00    +0.000 OA
ATOM    520  O5' A   B  54      -5.072   3.506  -9.480  0.00  0.00    +0.000 OA
ATOM    521  C5' A   B  54      -3.707   3.232  -9.222  0.00  0.00    +0.000 C 
ATOM    522  C4' A   B  54      -2.987   2.768 -10.466  0.00  0.00    +0.000 C 
ATOM    523  O4' A   B  54      -3.635   1.586 -11.001  0.00  0.00    +0.000 OA
ATOM    524  C3' A   B  54      -2.972   3.738 -11.633  0.00  0.00    +0.000 C 
ATOM    525  O3' A   B  54      -2.004   4.769 -11.495  0.00  0.00    +0.000 OA
ATOM    526  C2' A   B  54      -2.702   2.809 -12.808  0.00  0.00    +0.000 C 
ATOM    527  C1' A   B  54      -3.526   1.582 -12.413  0.00  0.00    +0.000 C 
ATOM    528  P   A   B  55      -2.238   6.189 -12.204  0.00  0.00    +0.000 P 
ATOM    529  OP2 A   B  55      -3.664   6.576 -12.055  0.00  0.00    +0.000 OA
ATOM    530  O5' A   B  55      -1.964   5.894 -13.748  0.00  0.00    +0.000 OA
ATOM    531  C5' A   B  55      -0.679   5.486 -14.190  0.00  0.00    +0.000 C 
ATOM    532  C4' A   B  55      -0.689   5.131 -15.658  0.00  0.00    +0.000 C 
ATOM    533  O4' A   B  55      -1.544   3.981 -15.885  0.00  0.00    +0.000 OA
ATOM    534  C3' A   B  55      -1.244   6.191 -16.594  0.00  0.00    +0.000 C 
ATOM    535  O3' A   B  55      -0.319   7.232 -16.876  0.00  0.00    +0.000 OA
ATOM    536  C2' A   B  55      -1.619   5.365 -17.815  0.00  0.00    +0.000 C 
ATOM    537  C1' A   B  55      -2.160   4.095 -17.154  0.00  0.00    +0.000 C 
ATOM    538  P   A   B  56      -0.860   8.712 -17.167  0.00  0.00    +0.000 P 
ATOM    539  OP1 A   B  56       0.326   9.602 -17.233  0.00  0.00    +0.000 OA
ATOM    540  O5' A   B  56      -1.483   8.601 -18.634  0.00  0.00    +0.000 OA
ATOM    541  C5' A   B  56      -0.661   8.266 -19.741  0.00  0.00    +0.000 C 
ATOM    542  C4' A   B  56      -1.484   7.987 -20.977  0.00  0.00    +0.000 C 
ATOM    543  O4' A   B  56      -2.347   6.843 -20.751  0.00  0.00    +0.000 OA
ATOM    544  C3' A   B  56      -2.443   9.082 -21.406  0.00  0.00    +0.000 C 
ATOM    545  O3' A   B  56      -1.805  10.152 -22.086  0.00  0.00    +0.000 OA
ATOM    546  C2' A   B  56      -3.427   8.314 -22.271  0.00  0.00    +0.000 C 
ATOM    547  C1' A   B  56      -3.545   7.006 -21.485  0.00  0.00    +0.000 C 
ATOM    548  P   A   B  57      -2.434  11.625 -22.005  0.00  0.00    +0.000 P 
ATOM    549  OP1 A   B  57      -1.451  12.551 -22.621  0.00  0.00    +0.000 OA
ATOM    550  O5' A   B  57      -3.706  11.536 -22.963  0.00  0.00    +0.000 OA
ATOM    551  C5' A   B  57      -3.550  11.220 -24.336  0.00  0.00    +0.000 C 
ATOM    552  C4' A   B  57      -4.882  10.997 -25.005  0.00  0.00    +0.000 C 
ATOM    553  O4' A   B  57      -5.543   9.844 -24.426  0.00  0.00    +0.000 OA
ATOM    554  C3' A   B  57      -5.901  12.112 -24.848  0.00  0.00    +0.000 C 
ATOM    555  O3' A   B  57      -5.662  13.207 -25.715  0.00  0.00    +0.000 OA
ATOM    556  C2' A   B  57      -7.207  11.388 -25.128  0.00  0.00    +0.000 C 
ATOM    557  C1' A   B  57      -6.942  10.044 -24.441  0.00  0.00    +0.000 C 
ATOM    558  P   C   B  58      -6.166  14.677 -25.292  0.00  0.00    +0.000 P 
ATOM    559  OP1 C   B  58      -5.449  15.650 -26.152  0.00  0.00    +0.000 OA
ATOM    560  O5' C   B  58      -7.698  14.659 -25.725  0.00  0.00    +0.000 OA
ATOM    561  C5' C   B  58      -8.059  14.451 -27.079  0.00  0.00    +0.000 C 
ATOM    562  C4' C   B  58      -9.546  14.264 -27.237  0.00  0.00    +0.000 C 
ATOM    563  O4' C   B  58      -9.968  13.035 -26.595  0.00  0.00    +0.000 OA
ATOM    564  C3' C   B  58     -10.428  15.316 -26.597  0.00  0.00    +0.000 C 
ATOM    565  O3' C   B  58     -10.495  16.521 -27.340  0.00  0.00    +0.000 OA
ATOM    566  C2' C   B  58     -11.761  14.589 -26.502  0.00  0.00    +0.000 C 
ATOM    567  C1' C   B  58     -11.295  13.182 -26.118  0.00  0.00    +0.000 C 
ATOM    568  P   A   B  59     -10.661  17.917 -26.561  0.00  0.00    +0.000 P 
ATOM    569  OP1 A   B  59     -10.597  19.005 -27.565  0.00  0.00    +0.000 OA
ATOM    570  O5' A   B  59     -12.152  17.840 -25.997  0.00  0.00    +0.000 OA
ATOM    571  C5' A   B  59     -13.248  17.764 -26.888  0.00  0.00    +0.000 C 
ATOM    572  C4' A   B  59     -14.525  17.393 -26.174  0.00  0.00    +0.000 C 
ATOM    573  O4' A   B  59     -14.386  16.096 -25.547  0.00  0.00    +0.000 OA
ATOM    574  C3' A   B  59     -14.945  18.298 -25.028  0.00  0.00    +0.000 C 
ATOM    575  O3' A   B  59     -15.542  19.504 -25.461  0.00  0.00    +0.000 OA
ATOM    576  C2' A   B  59     -15.891  17.399 -24.250  0.00  0.00    +0.000 C 
ATOM    577  C1' A   B  59     -15.180  16.048 -24.377  0.00  0.00    +0.000 C 
ATOM    578  P   G   B  60     -15.400  20.835 -24.558  0.00  0.00    +0.000 P 
ATOM    579  OP1 G   B  60     -15.990  21.948 -25.333  0.00  0.00    +0.000 OA
ATOM    580  O5' G   B  60     -16.336  20.535 -23.302  0.00  0.00    +0.000 OA
ATOM    581  C5' G   B  60     -17.721  20.317 -23.479  0.00  0.00    +0.000 C 
ATOM    582  C4' G   B  60     -18.397  19.898 -22.191  0.00  0.00    +0.000 C 
ATOM    583  O4' G   B  60     -17.879  18.615 -21.756  0.00  0.00    +0.000 OA
ATOM    584  C3' G   B  60     -18.171  20.796 -20.991  0.00  0.00    +0.000 C 
ATOM    585  O3' G   B  60     -18.980  21.961 -21.022  0.00  0.00    +0.000 OA
ATOM    586  C2' G   B  60     -18.518  19.866 -19.833  0.00  0.00    +0.000 C 
ATOM    587  C1' G   B  60     -17.998  18.517 -20.353  0.00  0.00    +0.000 C 
ATOM    588  P   A   B  61     -18.355  23.407 -20.793  0.00  0.00    +0.000 P 
ATOM    589  OP1 A   B  61     -16.876  23.284 -20.851  0.00  0.00    +0.000 OA
ATOM    590  O5' A   B  61     -18.850  24.218 -22.069  0.00  0.00    +0.000 OA
ATOM    591  C5' A   B  61     -18.332  23.917 -23.359  0.00  0.00    +0.000 C 
ATOM    592  C4' A   B  61     -19.405  24.011 -24.411  0.00  0.00    +0.000 C 
ATOM    593  O4' A   B  61     -20.307  22.883 -24.291  0.00  0.00    +0.000 OA
ATOM    594  C3' A   B  61     -20.312  25.225 -24.309  0.00  0.00    +0.000 C 
ATOM    595  O3' A   B  61     -19.741  26.390 -24.886  0.00  0.00    +0.000 OA
ATOM    596  C2' A   B  61     -21.572  24.756 -25.020  0.00  0.00    +0.000 C 
ATOM    597  C1' A   B  61     -21.632  23.294 -24.571  0.00  0.00    +0.000 C 
ATOM    598  P   C   B  62     -19.960  27.822 -24.178  0.00  0.00    +0.000 P 
ATOM    599  OP1 C   B  62     -19.103  28.811 -24.882  0.00  0.00    +0.000 OA
ATOM    600  O5' C   B  62     -21.477  28.163 -24.510  0.00  0.00    +0.000 OA
ATOM    601  C5' C   B  62     -21.938  28.240 -25.853  0.00  0.00    +0.000 C 
ATOM    602  C4' C   B  62     -23.436  28.382 -25.914  0.00  0.00    +0.000 C 
ATOM    603  O4' C   B  62     -24.066  27.202 -25.359  0.00  0.00    +0.000 OA
ATOM    604  C3' C   B  62     -24.012  29.521 -25.102  0.00  0.00    +0.000 C 
ATOM    605  O3' C   B  62     -23.917  30.772 -25.772  0.00  0.00    +0.000 OA
ATOM    606  C2' C   B  62     -25.447  29.069 -24.872  0.00  0.00    +0.000 C 
ATOM    607  C1' C   B  62     -25.255  27.563 -24.683  0.00  0.00    +0.000 C 
ATOM    608  P   U   B  63     -23.557  32.094 -24.944  0.00  0.00    +0.000 P 
ATOM    609  OP1 U   B  63     -23.427  33.207 -25.917  0.00  0.00    +0.000 OA
ATOM    610  O5' U   B  63     -24.860  32.352 -24.060  0.00  0.00    +0.000 OA
ATOM    611  C5' U   B  63     -26.122  32.588 -24.666  0.00  0.00    +0.000 C 
ATOM    612  C4' U   B  63     -27.245  32.497 -23.663  0.00  0.00    +0.000 C 
ATOM    613  O4' U   B  63     -27.299  31.160 -23.105  0.00  0.00    +0.000 OA
ATOM    614  C3' U   B  63     -27.116  33.395 -22.450  0.00  0.00    +0.000 C 
ATOM    615  O3' U   B  63     -27.521  34.731 -22.713  0.00  0.00    +0.000 OA
ATOM    616  C2' U   B  63     -27.992  32.689 -21.426  0.00  0.00    +0.000 C 
ATOM    617  C1' U   B  63     -27.701  31.221 -21.752  0.00  0.00    +0.000 C 
ATOM    618  P   A   B  64     -26.823  35.946 -21.940  0.00  0.00    +0.000 P 
ATOM    619  OP1 A   B  64     -27.306  37.205 -22.562  0.00  0.00    +0.000 OA
ATOM    620  O5' A   B  64     -27.434  35.853 -20.470  0.00  0.00    +0.000 OA
ATOM    621  C5' A   B  64     -28.826  36.016 -20.249  0.00  0.00    +0.000 C 
ATOM    622  C4' A   B  64     -29.212  35.618 -18.845  0.00  0.00    +0.000 C 
ATOM    623  O4' A   B  64     -28.920  34.213 -18.636  0.00  0.00    +0.000 OA
ATOM    624  C3' A   B  64     -28.457  36.318 -17.728  0.00  0.00    +0.000 C 
ATOM    625  O3' A   B  64     -28.982  37.607 -17.445  0.00  0.00    +0.000 OA
ATOM    626  C2' A   B  64     -28.600  35.343 -16.570  0.00  0.00    +0.000 C 
ATOM    627  C1' A   B  64     -28.512  34.000 -17.298  0.00  0.00    +0.000 C 
ATOM    628  P   C   B  65     -27.995  38.823 -17.102  0.00  0.00    +0.000 P 
ATOM    629  OP2 C   B  65     -26.801  38.732 -17.984  0.00  0.00    +0.000 OA
ATOM    630  O5' C   B  65     -27.525  38.515 -15.605  0.00  0.00    +0.000 OA
ATOM    631  C5' C   B  65     -28.457  38.443 -14.544  0.00  0.00    +0.000 C 
ATOM    632  C4' C   B  65     -27.854  37.787 -13.321  0.00  0.00    +0.000 C 
ATOM    633  O4' C   B  65     -27.467  36.424 -13.641  0.00  0.00    +0.000 OA
ATOM    634  C3' C   B  65     -26.578  38.418 -12.798  0.00  0.00    +0.000 C 
ATOM    635  O3' C   B  65     -26.822  39.563 -11.996  0.00  0.00    +0.000 OA
ATOM    636  C2' C   B  65     -25.935  37.269 -12.033  0.00  0.00    +0.000 C 
ATOM    637  C1' C   B  65     -26.292  36.081 -12.929  0.00  0.00    +0.000 C 
ATOM    638  P   A   B  66     -25.874  40.839 -12.093  0.00  0.00    +0.000 P 
ATOM    639  OP2 A   B  66     -25.534  41.053 -13.523  0.00  0.00    +0.000 OA
ATOM    640  O5' A   B  66     -24.537  40.385 -11.341  0.00  0.00    +0.000 OA
ATOM    641  C5' A   B  66     -24.546  40.074  -9.963  0.00  0.00    +0.000 C 
ATOM    642  C4' A   B  66     -23.291  39.339  -9.556  0.00  0.00    +0.000 C 
ATOM    643  O4' A   B  66     -23.177  38.116 -10.320  0.00  0.00    +0.000 OA
ATOM    644  C3' A   B  66     -21.984  40.067  -9.832  0.00  0.00    +0.000 C 
ATOM    645  O3' A   B  66     -21.655  41.003  -8.816  0.00  0.00    +0.000 OA
ATOM    646  C2' A   B  66     -20.980  38.932  -9.939  0.00  0.00    +0.000 C 
ATOM    647  C1' A   B  66     -21.824  37.862 -10.634  0.00  0.00    +0.000 C 
ATOM    648  N9  A   B  66     -21.674  37.896 -12.097  0.00  0.00    +0.000 N 
ATOM    649  C8  A   B  66     -22.564  38.389 -13.022  0.00  0.00    +0.000 A 
ATOM    650  N7  A   B  66     -22.153  38.284 -14.265  0.00  0.00    +0.000 NA
ATOM    651  C5  A   B  66     -20.908  37.679 -14.148  0.00  0.00    +0.000 A 
ATOM    652  C6  A   B  66     -19.955  37.290 -15.105  0.00  0.00    +0.000 C 
ATOM    653  N1  A   B  66     -18.819  36.713 -14.660  0.00  0.00    +0.000 NA
ATOM    654  C2  A   B  66     -18.658  36.538 -13.339  0.00  0.00    +0.000 C 
ATOM    655  N3  A   B  66     -19.481  36.860 -12.345  0.00  0.00    +0.000 N 
ATOM    656  C4  A   B  66     -20.602  37.435 -12.825  0.00  0.00    +0.000 A 
ATOM    657  P   A   B  67     -21.678  42.570  -9.144  0.00  0.00    +0.000 P 
ATOM    658  OP2 A   B  67     -21.625  42.737 -10.613  0.00  0.00    +0.000 OA
ATOM    659  O5' A   B  67     -20.300  43.096  -8.526  0.00  0.00    +0.000 OA
ATOM    660  C5' A   B  67     -19.201  43.378  -9.367  0.00  0.00    +0.000 C 
ATOM    661  C4' A   B  67     -18.202  42.249  -9.367  0.00  0.00    +0.000 C 
ATOM    662  O4' A   B  67     -18.753  41.118 -10.070  0.00  0.00    +0.000 OA
ATOM    663  C3' A   B  67     -16.893  42.537 -10.088  0.00  0.00    +0.000 C 
ATOM    664  O3' A   B  67     -15.967  43.203  -9.242  0.00  0.00    +0.000 OA
ATOM    665  C2' A   B  67     -16.419  41.159 -10.501  0.00  0.00    +0.000 C 
ATOM    666  C1' A   B  67     -17.748  40.454 -10.799  0.00  0.00    +0.000 C 
ATOM    667  P   A   B  68     -14.948  44.256  -9.778  0.00  0.00    +0.000 P 
ATOM    668  OP2 A   B  68     -14.010  43.557 -10.680  0.00  0.00    +0.000 OA
ATOM    669  O5' A   B  68     -14.145  44.632  -8.435  0.00  0.00    +0.000 OA
ATOM    670  C5' A   B  68     -13.269  43.703  -7.798  0.00  0.00    +0.000 C 
ATOM    671  C4' A   B  68     -13.964  42.948  -6.689  0.00  0.00    +0.000 C 
ATOM    672  O4' A   B  68     -14.975  42.071  -7.256  0.00  0.00    +0.000 OA
ATOM    673  C3' A   B  68     -13.078  42.020  -5.875  0.00  0.00    +0.000 C 
ATOM    674  O3' A   B  68     -12.390  42.702  -4.841  0.00  0.00    +0.000 OA
ATOM    675  C2' A   B  68     -14.069  40.984  -5.351  0.00  0.00    +0.000 C 
ATOM    676  C1' A   B  68     -15.037  40.867  -6.531  0.00  0.00    +0.000 C 
ATOM    677  P   A   B  69     -10.965  42.234  -4.372  0.00  0.00    +0.000 P 
ATOM    678  OP2 A   B  69     -10.166  41.992  -5.597  0.00  0.00    +0.000 OA
ATOM    679  O5' A   B  69     -11.213  40.835  -3.651  0.00  0.00    +0.000 OA
ATOM    680  C5' A   B  69     -11.997  40.748  -2.471  0.00  0.00    +0.000 C 
ATOM    681  C4' A   B  69     -12.362  39.317  -2.147  0.00  0.00    +0.000 C 
ATOM    682  O4' A   B  69     -13.088  38.730  -3.258  0.00  0.00    +0.000 OA
ATOM    683  C3' A   B  69     -11.194  38.374  -1.931  0.00  0.00    +0.000 C 
ATOM    684  O3' A   B  69     -10.660  38.463  -0.618  0.00  0.00    +0.000 OA
ATOM    685  C2' A   B  69     -11.806  37.011  -2.236  0.00  0.00    +0.000 C 
ATOM    686  C1' A   B  69     -12.781  37.359  -3.367  0.00  0.00    +0.000 C 
ATOM    687  P   A   B  70      -9.123  38.226  -0.363  0.00  0.00    +0.000 P 
ATOM    688  OP2 A   B  70      -8.382  38.724  -1.547  0.00  0.00    +0.000 OA
ATOM    689  O5' A   B  70      -8.970  36.642  -0.310  0.00  0.00    +0.000 OA
ATOM    690  C5' A   B  70      -9.752  35.849   0.572  0.00  0.00    +0.000 C 
ATOM    691  C4' A   B  70      -9.744  34.400   0.150  0.00  0.00    +0.000 C 
ATOM    692  O4' A   B  70     -10.348  34.277  -1.162  0.00  0.00    +0.000 OA
ATOM    693  C3' A   B  70      -8.362  33.791   0.002  0.00  0.00    +0.000 C 
ATOM    694  O3' A   B  70      -7.864  33.294   1.232  0.00  0.00    +0.000 OA
ATOM    695  C2' A   B  70      -8.577  32.702  -1.040  0.00  0.00    +0.000 C 
ATOM    696  C1' A   B  70      -9.662  33.321  -1.930  0.00  0.00    +0.000 C 
ATOM    697  P   U   B  71      -6.449  33.665   1.741  0.00  0.00    +0.000 P 
ATOM    698  OP2 U   B  71      -5.845  34.655   0.815  0.00  0.00    +0.000 OA
ATOM    699  O5' U   B  71      -5.656  32.283   1.583  0.00  0.00    +0.000 OA
ATOM    700  C5' U   B  71      -6.291  31.040   1.857  0.00  0.00    +0.000 C 
ATOM    701  C4' U   B  71      -5.523  29.908   1.216  0.00  0.00    +0.000 C 
ATOM    702  O4' U   B  71      -5.551  30.079  -0.218  0.00  0.00    +0.000 OA
ATOM    703  C3' U   B  71      -4.059  29.844   1.593  0.00  0.00    +0.000 C 
ATOM    704  O3' U   B  71      -3.858  28.954   2.689  0.00  0.00    +0.000 OA
ATOM    705  C2' U   B  71      -3.342  29.332   0.344  0.00  0.00    +0.000 C 
ATOM    706  O2' U   B  71      -3.073  27.951   0.421  0.00  0.00    +0.000 OA
ATOM    707  C1' U   B  71      -4.358  29.589  -0.785  0.00  0.00    +0.000 C 
ATOM    708  N1  U   B  71      -3.890  30.552  -1.789  0.00  0.00    +0.000 N 
ATOM    709  C2  U   B  71      -3.323  30.033  -2.940  0.00  0.00    +0.000 C 
ATOM    710  N3  U   B  71      -2.904  30.967  -3.856  0.00  0.00    +0.000 N 
ATOM    711  C4  U   B  71      -2.995  32.340  -3.742  0.00  0.00    +0.000 C 
ATOM    712  O4  U   B  71      -2.570  33.042  -4.654  0.00  0.00    +0.000 OA
ATOM    713  C5  U   B  71      -3.593  32.801  -2.525  0.00  0.00    +0.000 C 
ATOM    714  C6  U   B  71      -4.009  31.911  -1.613  0.00  0.00    +0.000 C 
ATOM    715  P   C   B  72      -3.961  29.420   4.166  0.00  0.00    +0.000 P 
ATOM    716  OP2 C   B  72      -3.384  30.788   4.273  0.00  0.00    +0.000 OA
ATOM    717  O5' C   B  72      -2.973  28.414   4.914  0.00  0.00    +0.000 OA
ATOM    718  C5' C   B  72      -3.335  27.045   5.068  0.00  0.00    +0.000 C 
ATOM    719  C4' C   B  72      -2.153  26.125   4.881  0.00  0.00    +0.000 C 
ATOM    720  O4' C   B  72      -1.871  25.944   3.464  0.00  0.00    +0.000 OA
ATOM    721  C3' C   B  72      -0.850  26.613   5.509  0.00  0.00    +0.000 C 
ATOM    722  C2' C   B  72      -0.099  27.207   4.331  0.00  0.00    +0.000 C 
ATOM    723  C1' C   B  72      -0.528  26.279   3.194  0.00  0.00    +0.000 C 
ATOM    724  N1  C   B  72      -0.487  26.902   1.856  0.00  0.00    +0.000 N 
ATOM    725  C2  C   B  72       0.463  26.463   0.932  0.00  0.00    +0.000 C 
ATOM    726  O2  C   B  72       1.254  25.569   1.250  0.00  0.00    +0.000 OA
ATOM    727  N3  C   B  72       0.487  27.030  -0.304  0.00  0.00    +0.000 NA
ATOM    728  C4  C   B  72      -0.382  27.993  -0.615  0.00  0.00    +0.000 C 
ATOM    729  N4  C   B  72      -0.314  28.523  -1.837  0.00  0.00    +0.000 N 
ATOM    730  C5  C   B  72      -1.358  28.451   0.311  0.00  0.00    +0.000 C 
ATOM    731  C6  C   B  72      -1.377  27.886   1.523  0.00  0.00    +0.000 C 
ATOM    732  H   A   B  66     -19.297  36.701 -11.391  0.00  0.00    +0.000 HD
ATOM    733  H   C   B  72       0.364  28.203  -2.475  0.00  0.00    +0.000 HD
ATOM    734  H   C   B  72      -0.941  29.234  -2.101  0.00  0.00    +0.000 HD
ENDROOT
BRANCH 587 735
ATOM    735  N9  G   B  60     -16.692  18.165 -19.766  0.00  0.00    +0.000 N 
ATOM    736  C8  G   B  60     -15.438  18.458 -20.231  0.00  0.00    +0.000 A 
ATOM    737  N7  G   B  60     -14.490  17.998 -19.454  0.00  0.00    +0.000 NA
ATOM    738  C5  G   B  60     -15.165  17.364 -18.418  0.00  0.00    +0.000 A 
ATOM    739  C6  G   B  60     -14.680  16.681 -17.276  0.00  0.00    +0.000 A 
ATOM    740  O6  G   B  60     -13.501  16.491 -16.931  0.00  0.00    +0.000 OA
ATOM    741  N1  G   B  60     -15.715  16.195 -16.488  0.00  0.00    +0.000 NA
ATOM    742  C2  G   B  60     -17.051  16.345 -16.759  0.00  0.00    +0.000 A 
ATOM    743  N2  G   B  60     -17.911  15.806 -15.882  0.00  0.00    +0.000 N 
ATOM    744  N3  G   B  60     -17.521  16.979 -17.818  0.00  0.00    +0.000 N 
ATOM    745  C4  G   B  60     -16.525  17.460 -18.599  0.00  0.00    +0.000 A 
ATOM    746  H   G   B  60     -18.881  15.886 -16.031  0.00  0.00    +0.000 HD
ATOM    747  H   G   B  60     -17.572  15.330 -15.089  0.00  0.00    +0.000 HD
ATOM    748  H   G   B  60     -18.479  17.089 -18.016  0.00  0.00    +0.000 HD
ENDBRANCH 587 735
BRANCH 167 749
ATOM    749  N9  G   B  18      -5.149  24.525 -11.037  0.00  0.00    +0.000 N 
ATOM    750  C8  G   B  18      -5.805  24.925 -12.175  0.00  0.00    +0.000 A 
ATOM    751  N7  G   B  18      -7.096  25.035 -12.008  0.00  0.00    +0.000 NA
ATOM    752  C5  G   B  18      -7.304  24.693 -10.678  0.00  0.00    +0.000 A 
ATOM    753  C6  G   B  18      -8.500  24.632  -9.920  0.00  0.00    +0.000 A 
ATOM    754  O6  G   B  18      -9.660  24.878 -10.284  0.00  0.00    +0.000 OA
ATOM    755  N1  G   B  18      -8.261  24.233  -8.607  0.00  0.00    +0.000 NA
ATOM    756  C2  G   B  18      -7.023  23.931  -8.090  0.00  0.00    +0.000 A 
ATOM    757  N2  G   B  18      -6.982  23.565  -6.798  0.00  0.00    +0.000 N 
ATOM    758  N3  G   B  18      -5.896  23.985  -8.787  0.00  0.00    +0.000 N 
ATOM    759  C4  G   B  18      -6.109  24.373 -10.066  0.00  0.00    +0.000 A 
ATOM    760  H   G   B  18      -6.121  23.338  -6.378  0.00  0.00    +0.000 HD
ATOM    761  H   G   B  18      -7.813  23.524  -6.271  0.00  0.00    +0.000 HD
ATOM    762  H   G   B  18      -5.009  23.768  -8.418  0.00  0.00    +0.000 HD
ENDBRANCH 167 749
BRANCH 467 763
ATOM    763  N9  A   B  48     -15.516 -15.424 -20.080  0.00  0.00    +0.000 N 
ATOM    764  C8  A   B  48     -14.185 -15.180 -20.313  0.00  0.00    +0.000 A 
ATOM    765  N7  A   B  48     -13.450 -15.200 -19.224  0.00  0.00    +0.000 NA
ATOM    766  C5  A   B  48     -14.357 -15.472 -18.210  0.00  0.00    +0.000 A 
ATOM    767  C6  A   B  48     -14.210 -15.623 -16.823  0.00  0.00    +0.000 A 
ATOM    768  N6  A   B  48     -13.034 -15.517 -16.185  0.00  0.00    +0.000 N 
ATOM    769  N1  A   B  48     -15.317 -15.891 -16.096  0.00  0.00    +0.000 NA
ATOM    770  C2  A   B  48     -16.490 -15.995 -16.728  0.00  0.00    +0.000 A 
ATOM    771  N3  A   B  48     -16.756 -15.875 -18.029  0.00  0.00    +0.000 NA
ATOM    772  C4  A   B  48     -15.634 -15.611 -18.722  0.00  0.00    +0.000 A 
ATOM    773  H   A   B  48     -12.214 -15.322 -16.694  0.00  0.00    +0.000 HD
ATOM    774  H   A   B  48     -12.991 -15.634 -15.208  0.00  0.00    +0.000 HD
ENDBRANCH 467 763
BRANCH 577 775
ATOM    775  N9  A   B  59     -14.316  15.786 -23.214  0.00  0.00    +0.000 N 
ATOM    776  C8  A   B  59     -12.969  15.992 -23.083  0.00  0.00    +0.000 A 
ATOM    777  N7  A   B  59     -12.499  15.656 -21.902  0.00  0.00    +0.000 NA
ATOM    778  C5  A   B  59     -13.615  15.200 -21.211  0.00  0.00    +0.000 A 
ATOM    779  C6  A   B  59     -13.791  14.700 -19.911  0.00  0.00    +0.000 A 
ATOM    780  N6  A   B  59     -12.795  14.570 -19.024  0.00  0.00    +0.000 N 
ATOM    781  N1  A   B  59     -15.036  14.335 -19.542  0.00  0.00    +0.000 NA
ATOM    782  C2  A   B  59     -16.035  14.469 -20.422  0.00  0.00    +0.000 A 
ATOM    783  N3  A   B  59     -15.994  14.925 -21.673  0.00  0.00    +0.000 NA
ATOM    784  C4  A   B  59     -14.739  15.277 -22.008  0.00  0.00    +0.000 A 
ATOM    785  H   A   B  59     -11.878  14.830 -19.272  0.00  0.00    +0.000 HD
ATOM    786  H   A   B  59     -12.980  14.214 -18.125  0.00  0.00    +0.000 HD
ENDBRANCH 577 775
BRANCH 557 787
ATOM    787  N9  A   B  57      -7.440  10.039 -23.054  0.00  0.00    +0.000 N 
ATOM    788  C8  A   B  57      -6.730  10.252 -21.899  0.00  0.00    +0.000 A 
ATOM    789  N7  A   B  57      -7.465  10.187 -20.811  0.00  0.00    +0.000 NA
ATOM    790  C5  A   B  57      -8.742   9.920 -21.284  0.00  0.00    +0.000 A 
ATOM    791  C6  A   B  57      -9.974   9.734 -20.638  0.00  0.00    +0.000 A 
ATOM    792  N6  A   B  57     -10.125   9.796 -19.308  0.00  0.00    +0.000 N 
ATOM    793  N1  A   B  57     -11.053   9.480 -21.406  0.00  0.00    +0.000 NA
ATOM    794  C2  A   B  57     -10.903   9.420 -22.734  0.00  0.00    +0.000 A 
ATOM    795  N3  A   B  57      -9.795   9.578 -23.459  0.00  0.00    +0.000 NA
ATOM    796  C4  A   B  57      -8.739   9.828 -22.662  0.00  0.00    +0.000 A 
ATOM    797  H   A   B  57     -11.013   9.658 -18.906  0.00  0.00    +0.000 HD
ATOM    798  H   A   B  57      -9.348   9.980 -18.732  0.00  0.00    +0.000 HD
ENDBRANCH 557 787
BRANCH 547 799
ATOM    799  N9  A   B  56      -4.678   7.045 -20.545  0.00  0.00    +0.000 N 
ATOM    800  C8  A   B  56      -4.657   7.283 -19.191  0.00  0.00    +0.000 A 
ATOM    801  N7  A   B  56      -5.848   7.255 -18.637  0.00  0.00    +0.000 NA
ATOM    802  C5  A   B  56      -6.708   6.988 -19.693  0.00  0.00    +0.000 A 
ATOM    803  C6  A   B  56      -8.100   6.833 -19.772  0.00  0.00    +0.000 A 
ATOM    804  N6  A   B  56      -8.914   6.934 -18.712  0.00  0.00    +0.000 N 
ATOM    805  N1  A   B  56      -8.637   6.568 -20.982  0.00  0.00    +0.000 NA
ATOM    806  C2  A   B  56      -7.827   6.471 -22.042  0.00  0.00    +0.000 A 
ATOM    807  N3  A   B  56      -6.501   6.596 -22.096  0.00  0.00    +0.000 NA
ATOM    808  C4  A   B  56      -5.999   6.857 -20.873  0.00  0.00    +0.000 A 
ATOM    809  H   A   B  56      -9.885   6.816 -18.824  0.00  0.00    +0.000 HD
ATOM    810  H   A   B  56      -8.541   7.126 -17.821  0.00  0.00    +0.000 HD
ENDBRANCH 547 799
BRANCH 597 811
ATOM    811  N9  A   B  61     -22.436  23.119 -23.349  0.00  0.00    +0.000 N 
ATOM    812  C8  A   B  61     -21.993  22.685 -22.125  0.00  0.00    +0.000 A 
ATOM    813  N7  A   B  61     -22.935  22.626 -21.209  0.00  0.00    +0.000 NA
ATOM    814  C5  A   B  61     -24.077  23.050 -21.881  0.00  0.00    +0.000 A 
ATOM    815  C6  A   B  61     -25.410  23.210 -21.466  0.00  0.00    +0.000 A 
ATOM    816  N6  A   B  61     -25.833  22.955 -20.222  0.00  0.00    +0.000 N 
ATOM    817  N1  A   B  61     -26.304  23.647 -22.381  0.00  0.00    +0.000 NA
ATOM    818  C2  A   B  61     -25.874  23.906 -23.627  0.00  0.00    +0.000 A 
ATOM    819  N3  A   B  61     -24.649  23.796 -24.133  0.00  0.00    +0.000 NA
ATOM    820  C4  A   B  61     -23.786  23.353 -23.197  0.00  0.00    +0.000 A 
ATOM    821  H   A   B  61     -26.780  23.085 -19.988  0.00  0.00    +0.000 HD
ATOM    822  H   A   B  61     -25.197  22.637 -19.541  0.00  0.00    +0.000 HD
ENDBRANCH 597 811
BRANCH 337 823
ATOM    823  N9  A   B  35     -15.973 -22.807 -17.461  0.00  0.00    +0.000 N 
ATOM    824  C8  A   B  35     -15.973 -22.986 -16.099  0.00  0.00    +0.000 A 
ATOM    825  N7  A   B  35     -14.813 -22.727 -15.537  0.00  0.00    +0.000 NA
ATOM    826  C5  A   B  35     -13.998 -22.355 -16.600  0.00  0.00    +0.000 A 
ATOM    827  C6  A   B  35     -12.651 -21.962 -16.677  0.00  0.00    +0.000 A 
ATOM    828  N6  A   B  35     -11.843 -21.874 -15.610  0.00  0.00    +0.000 N 
ATOM    829  N1  A   B  35     -12.148 -21.662 -17.893  0.00  0.00    +0.000 NA
ATOM    830  C2  A   B  35     -12.949 -21.753 -18.961  0.00  0.00    +0.000 A 
ATOM    831  N3  A   B  35     -14.232 -22.107 -19.015  0.00  0.00    +0.000 NA
ATOM    832  C4  A   B  35     -14.699 -22.400 -17.788  0.00  0.00    +0.000 A 
ATOM    833  H   A   B  35     -10.906 -21.593 -15.724  0.00  0.00    +0.000 HD
ATOM    834  H   A   B  35     -12.187 -22.091 -14.713  0.00  0.00    +0.000 HD
ENDBRANCH 337 823
BRANCH 357 835
ATOM    835  N9  A   B  37      -7.947 -27.645 -19.362  0.00  0.00    +0.000 N 
ATOM    836  C8  A   B  37      -9.225 -27.920 -18.944  0.00  0.00    +0.000 A 
ATOM    837  N7  A   B  37      -9.389 -27.822 -17.645  0.00  0.00    +0.000 NA
ATOM    838  C5  A   B  37      -8.132 -27.455 -17.177  0.00  0.00    +0.000 A 
ATOM    839  C6  A   B  37      -7.637 -27.190 -15.888  0.00  0.00    +0.000 A 
ATOM    840  N6  A   B  37      -8.387 -27.259 -14.777  0.00  0.00    +0.000 N 
ATOM    841  N1  A   B  37      -6.337 -26.850 -15.768  0.00  0.00    +0.000 NA
ATOM    842  C2  A   B  37      -5.585 -26.782 -16.875  0.00  0.00    +0.000 A 
ATOM    843  N3  A   B  37      -5.936 -27.005 -18.141  0.00  0.00    +0.000 NA
ATOM    844  C4  A   B  37      -7.237 -27.342 -18.223  0.00  0.00    +0.000 A 
ATOM    845  H   A   B  37      -9.338 -27.505 -14.840  0.00  0.00    +0.000 HD
ATOM    846  H   A   B  37      -7.986 -27.064 -13.899  0.00  0.00    +0.000 HD
ENDBRANCH 357 835
BRANCH 627 847
ATOM    847  N9  A   B  64     -27.144  33.457 -17.308  0.00  0.00    +0.000 N 
ATOM    848  C8  A   B  64     -26.237  33.480 -18.335  0.00  0.00    +0.000 A 
ATOM    849  N7  A   B  64     -25.093  32.910 -18.042  0.00  0.00    +0.000 NA
ATOM    850  C5  A   B  64     -25.263  32.479 -16.730  0.00  0.00    +0.000 A 
ATOM    851  C6  A   B  64     -24.414  31.799 -15.840  0.00  0.00    +0.000 A 
ATOM    852  N6  A   B  64     -23.167  31.418 -16.148  0.00  0.00    +0.000 N 
ATOM    853  N1  A   B  64     -24.889  31.522 -14.609  0.00  0.00    +0.000 NA
ATOM    854  C2  A   B  64     -26.133  31.903 -14.300  0.00  0.00    +0.000 A 
ATOM    855  N3  A   B  64     -27.022  32.545 -15.050  0.00  0.00    +0.000 NA
ATOM    856  C4  A   B  64     -26.517  32.807 -16.270  0.00  0.00    +0.000 A 
ATOM    857  H   A   B  64     -22.800  31.610 -17.041  0.00  0.00    +0.000 HD
ATOM    858  H   A   B  64     -22.618  30.946 -15.481  0.00  0.00    +0.000 HD
ENDBRANCH 627 847
BRANCH 567 859
ATOM    859  N1  C   B  58     -11.312  12.984 -24.653  0.00  0.00    +0.000 N 
ATOM    860  C2  C   B  58     -12.516  12.588 -24.063  0.00  0.00    +0.000 A 
ATOM    861  O2  C   B  58     -13.512  12.405 -24.785  0.00  0.00    +0.000 OA
ATOM    862  N3  C   B  58     -12.570  12.408 -22.720  0.00  0.00    +0.000 NA
ATOM    863  C4  C   B  58     -11.478  12.614 -21.975  0.00  0.00    +0.000 A 
ATOM    864  N4  C   B  58     -11.579  12.427 -20.658  0.00  0.00    +0.000 N 
ATOM    865  C5  C   B  58     -10.242  13.022 -22.552  0.00  0.00    +0.000 A 
ATOM    866  C6  C   B  58     -10.203  13.196 -23.879  0.00  0.00    +0.000 A 
ATOM    867  H   C   B  58     -12.437  12.145 -20.265  0.00  0.00    +0.000 HD
ATOM    868  H   C   B  58     -10.796  12.571 -20.079  0.00  0.00    +0.000 HD
ENDBRANCH 567 859
BRANCH  56 869
ATOM    869  N1  C   B   7     -29.133  25.692 -16.150  0.00  0.00    +0.000 N 
ATOM    870  C2  C   B   7     -28.404  26.038 -17.289  0.00  0.00    +0.000 A 
ATOM    871  O2  C   B   7     -28.956  26.694 -18.186  0.00  0.00    +0.000 OA
ATOM    872  N3  C   B   7     -27.109  25.648 -17.388  0.00  0.00    +0.000 NA
ATOM    873  C4  C   B   7     -26.541  24.947 -16.403  0.00  0.00    +0.000 A 
ATOM    874  N4  C   B   7     -25.262  24.590 -16.549  0.00  0.00    +0.000 N 
ATOM    875  C5  C   B   7     -27.260  24.585 -15.233  0.00  0.00    +0.000 A 
ATOM    876  C6  C   B   7     -28.539  24.975 -15.146  0.00  0.00    +0.000 A 
ATOM    877  H   C   B   7     -24.770  24.844 -17.363  0.00  0.00    +0.000 HD
ATOM    878  H   C   B   7     -24.812  24.072 -15.843  0.00  0.00    +0.000 HD
ENDBRANCH  56 869
BRANCH 607 879
ATOM    879  N1  C   B  62     -25.117  27.187 -23.256  0.00  0.00    +0.000 N 
ATOM    880  C2  C   B  62     -26.260  27.160 -22.446  0.00  0.00    +0.000 A 
ATOM    881  O2  C   B  62     -27.358  27.453 -22.943  0.00  0.00    +0.000 OA
ATOM    882  N3  C   B  62     -26.140  26.812 -21.141  0.00  0.00    +0.000 NA
ATOM    883  C4  C   B  62     -24.944  26.502 -20.638  0.00  0.00    +0.000 A 
ATOM    884  N4  C   B  62     -24.876  26.169 -19.346  0.00  0.00    +0.000 N 
ATOM    885  C5  C   B  62     -23.769  26.519 -21.436  0.00  0.00    +0.000 A 
ATOM    886  C6  C   B  62     -23.898  26.863 -22.727  0.00  0.00    +0.000 A 
ATOM    887  H   C   B  62     -24.009  25.935 -18.943  0.00  0.00    +0.000 HD
ATOM    888  H   C   B  62     -25.693  26.158 -18.797  0.00  0.00    +0.000 HD
ENDBRANCH 607 879
BRANCH 207 889
ATOM    889  N1  C   B  22     -16.407  13.301 -12.308  0.00  0.00    +0.000 N 
ATOM    890  C2  C   B  22     -16.510  14.136 -13.430  0.00  0.00    +0.000 A 
ATOM    891  O2  C   B  22     -17.620  14.590 -13.745  0.00  0.00    +0.000 OA
ATOM    892  N3  C   B  22     -15.396  14.426 -14.146  0.00  0.00    +0.000 NA
ATOM    893  C4  C   B  22     -14.215  13.919 -13.783  0.00  0.00    +0.000 A 
ATOM    894  N4  C   B  22     -13.148  14.234 -14.520  0.00  0.00    +0.000 N 
ATOM    895  C5  C   B  22     -14.082  13.068 -12.648  0.00  0.00    +0.000 A 
ATOM    896  C6  C   B  22     -15.192  12.788 -11.947  0.00  0.00    +0.000 A 
ATOM    897  H   C   B  22     -13.247  14.823 -15.303  0.00  0.00    +0.000 HD
ATOM    898  H   C   B  22     -12.262  13.878 -14.281  0.00  0.00    +0.000 HD
ENDBRANCH 207 889
BRANCH 387 899
ATOM    899  N1  C   B  40      -3.517 -36.749 -11.611  0.00  0.00    +0.000 N 
ATOM    900  C2  C   B  40      -2.412 -36.399 -10.833  0.00  0.00    +0.000 A 
ATOM    901  O2  C   B  40      -2.419 -36.634  -9.614  0.00  0.00    +0.000 OA
ATOM    902  N3  C   B  40      -1.345 -35.807 -11.428  0.00  0.00    +0.000 NA
ATOM    903  C4  C   B  40      -1.365 -35.569 -12.740  0.00  0.00    +0.000 A 
ATOM    904  N4  C   B  40      -0.291 -34.986 -13.279  0.00  0.00    +0.000 N 
ATOM    905  C5  C   B  40      -2.482 -35.914 -13.552  0.00  0.00    +0.000 A 
ATOM    906  C6  C   B  40      -3.529 -36.500 -12.951  0.00  0.00    +0.000 A 
ATOM    907  H   C   B  40      -0.268 -34.794 -14.244  0.00  0.00    +0.000 HD
ATOM    908  H   C   B  40       0.477 -34.748 -12.711  0.00  0.00    +0.000 HD
ENDBRANCH 387 899
BRANCH 147 909
ATOM    909  N1  C   B  16       2.537  30.010  -9.466  0.00  0.00    +0.000 N 
ATOM    910  C2  C   B  16       3.429  28.949  -9.649  0.00  0.00    +0.000 A 
ATOM    911  O2  C   B  16       4.157  28.926 -10.657  0.00  0.00    +0.000 OA
ATOM    912  N3  C   B  16       3.483  27.964  -8.714  0.00  0.00    +0.000 NA
ATOM    913  C4  C   B  16       2.688  28.020  -7.640  0.00  0.00    +0.000 A 
ATOM    914  N4  C   B  16       2.776  27.022  -6.750  0.00  0.00    +0.000 N 
ATOM    915  C5  C   B  16       1.774  29.089  -7.432  0.00  0.00    +0.000 A 
ATOM    916  C6  C   B  16       1.730  30.061  -8.364  0.00  0.00    +0.000 A 
ATOM    917  H   C   B  16       3.411  26.284  -6.899  0.00  0.00    +0.000 HD
ATOM    918  H   C   B  16       2.206  27.027  -5.947  0.00  0.00    +0.000 HD
ENDBRANCH 147 909
BRANCH 637 919
ATOM    919  N1  C   B  65     -25.226  35.769 -13.910  0.00  0.00    +0.000 N 
ATOM    920  C2  C   B  65     -24.121  35.027 -13.483  0.00  0.00    +0.000 A 
ATOM    921  O2  C   B  65     -24.064  34.646 -12.305  0.00  0.00    +0.000 OA
ATOM    922  N3  C   B  65     -23.138  34.737 -14.372  0.00  0.00    +0.000 NA
ATOM    923  C4  C   B  65     -23.229  35.158 -15.635  0.00  0.00    +0.000 A 
ATOM    924  N4  C   B  65     -22.237  34.849 -16.473  0.00  0.00    +0.000 N 
ATOM    925  C5  C   B  65     -24.341  35.913 -16.092  0.00  0.00    +0.000 A 
ATOM    926  C6  C   B  65     -25.308  36.192 -15.206  0.00  0.00    +0.000 A 
ATOM    927  H   C   B  65     -22.275  35.145 -17.411  0.00  0.00    +0.000 HD
ATOM    928  H   C   B  65     -21.467  34.325 -16.153  0.00  0.00    +0.000 HD
ENDBRANCH 637 919
BRANCH 427 929
ATOM    929  N1  C   B  44      -3.384 -25.330 -12.448  0.00  0.00    +0.000 N 
ATOM    930  C2  C   B  44      -3.748 -26.336 -13.349  0.00  0.00    +0.000 A 
ATOM    931  O2  C   B  44      -2.944 -26.692 -14.224  0.00  0.00    +0.000 OA
ATOM    932  N3  C   B  44      -4.978 -26.903 -13.241  0.00  0.00    +0.000 NA
ATOM    933  C4  C   B  44      -5.824 -26.500 -12.289  0.00  0.00    +0.000 A 
ATOM    934  N4  C   B  44      -7.022 -27.088 -12.226  0.00  0.00    +0.000 N 
ATOM    935  C5  C   B  44      -5.475 -25.478 -11.362  0.00  0.00    +0.000 A 
ATOM    936  C6  C   B  44      -4.259 -24.927 -11.475  0.00  0.00    +0.000 A 
ATOM    937  H   C   B  44      -7.258 -27.794 -12.870  0.00  0.00    +0.000 HD
ATOM    938  H   C   B  44      -7.669 -26.815 -11.536  0.00  0.00    +0.000 HD
ENDBRANCH 427 929
BRANCH 117 939
ATOM    939  N1  C   B  13     -11.432  23.870  -4.548  0.00  0.00    +0.000 N 
ATOM    940  C2  C   B  13     -10.414  23.764  -5.508  0.00  0.00    +0.000 A 
ATOM    941  O2  C   B  13      -9.286  23.391  -5.152  0.00  0.00    +0.000 OA
ATOM    942  N3  C   B  13     -10.687  24.071  -6.799  0.00  0.00    +0.000 NA
ATOM    943  C4  C   B  13     -11.914  24.470  -7.145  0.00  0.00    +0.000 A 
ATOM    944  N4  C   B  13     -12.130  24.761  -8.428  0.00  0.00    +0.000 N 
ATOM    945  C5  C   B  13     -12.966  24.589  -6.188  0.00  0.00    +0.000 A 
ATOM    946  C6  C   B  13     -12.682  24.285  -4.913  0.00  0.00    +0.000 A 
ATOM    947  H   C   B  13     -11.399  24.676  -9.082  0.00  0.00    +0.000 HD
ATOM    948  H   C   B  13     -13.021  25.061  -8.722  0.00  0.00    +0.000 HD
ENDBRANCH 117 939
BRANCH 157 949
ATOM    949  N1  C   B  17       1.146  26.128 -11.663  0.00  0.00    +0.000 N 
ATOM    950  C2  C   B  17       1.458  24.947 -10.977  0.00  0.00    +0.000 A 
ATOM    951  O2  C   B  17       2.128  24.073 -11.546  0.00  0.00    +0.000 OA
ATOM    952  N3  C   B  17       1.019  24.790  -9.701  0.00  0.00    +0.000 NA
ATOM    953  C4  C   B  17       0.300  25.750  -9.113  0.00  0.00    +0.000 A 
ATOM    954  N4  C   B  17      -0.110  25.546  -7.858  0.00  0.00    +0.000 N 
ATOM    955  C5  C   B  17      -0.030  26.959  -9.789  0.00  0.00    +0.000 A 
ATOM    956  C6  C   B  17       0.407  27.104 -11.048  0.00  0.00    +0.000 A 
ATOM    957  H   C   B  17      -0.642  26.234  -7.396  0.00  0.00    +0.000 HD
ATOM    958  H   C   B  17       0.120  24.708  -7.395  0.00  0.00    +0.000 HD
ENDBRANCH 157 949
BRANCH 617 959
ATOM    959  N1  U   B  63     -26.618  30.668 -20.908  0.00  0.00    +0.000 N 
ATOM    960  C2  U   B  63     -26.940  30.283 -19.618  0.00  0.00    +0.000 A 
ATOM    961  O2  U   B  63     -28.065  30.378 -19.156  0.00  0.00    +0.000 OA
ATOM    962  N3  U   B  63     -25.894  29.777 -18.882  0.00  0.00    +0.000 N 
ATOM    963  C4  U   B  63     -24.588  29.622 -19.298  0.00  0.00    +0.000 A 
ATOM    964  O4  U   B  63     -23.756  29.153 -18.518  0.00  0.00    +0.000 OA
ATOM    965  C5  U   B  63     -24.338  30.041 -20.639  0.00  0.00    +0.000 A 
ATOM    966  C6  U   B  63     -25.337  30.537 -21.383  0.00  0.00    +0.000 A 
ATOM    967  H   U   B  63     -26.099  29.496 -17.961  0.00  0.00    +0.000 HD
ENDBRANCH 617 959
BRANCH 197 968
ATOM    968  N9  A   B  21     -13.223  14.494  -8.839  0.00  0.00    +0.000 N 
ATOM    969  C8  A   B  21     -11.947  14.379  -9.332  0.00  0.00    +0.000 A 
ATOM    970  N7  A   B  21     -11.765  15.013 -10.471  0.00  0.00    +0.000 NA
ATOM    971  C5  A   B  21     -13.004  15.577 -10.747  0.00  0.00    +0.000 A 
ATOM    972  C6  A   B  21     -13.476  16.370 -11.806  0.00  0.00    +0.000 A 
ATOM    973  N1  A   B  21     -14.771  16.763 -11.771  0.00  0.00    +0.000 NA
ATOM    974  C2  A   B  21     -15.532  16.378 -10.739  0.00  0.00    +0.000 A 
ATOM    975  N3  A   B  21     -15.202  15.634  -9.682  0.00  0.00    +0.000 NA
ATOM    976  C4  A   B  21     -13.910  15.262  -9.749  0.00  0.00    +0.000 A 
BRANCH 972 977
ATOM    977  N6  A   B  21     -12.718  16.748 -12.842  0.00  0.00    +0.000 N 
ATOM    978  H   A   B  21     -13.103  17.305 -13.557  0.00  0.00    +0.000 HD
ATOM    979  H   A   B  21     -11.775  16.469 -12.890  0.00  0.00    +0.000 HD
ENDBRANCH 972 977
ENDBRANCH 197 968
BRANCH 666 980
ATOM    980  N9  A   B  67     -18.124  40.496 -12.222  0.00  0.00    +0.000 N 
ATOM    981  C8  A   B  67     -19.261  41.064 -12.756  0.00  0.00    +0.000 A 
ATOM    982  N7  A   B  67     -19.344  40.954 -14.063  0.00  0.00    +0.000 NA
ATOM    983  C5  A   B  67     -18.186  40.265 -14.408  0.00  0.00    +0.000 A 
ATOM    984  C6  A   B  67     -17.686  39.835 -15.644  0.00  0.00    +0.000 A 
ATOM    985  N1  A   B  67     -16.507  39.173 -15.650  0.00  0.00    +0.000 NA
ATOM    986  C2  A   B  67     -15.880  38.960 -14.480  0.00  0.00    +0.000 A 
ATOM    987  N3  A   B  67     -16.253  39.315 -13.259  0.00  0.00    +0.000 NA
ATOM    988  C4  A   B  67     -17.431  39.974 -13.292  0.00  0.00    +0.000 A 
BRANCH 984 989
ATOM    989  N6  A   B  67     -18.311  40.050 -16.810  0.00  0.00    +0.000 N 
ATOM    990  H   A   B  67     -17.913  39.725 -17.649  0.00  0.00    +0.000 HD
ATOM    991  H   A   B  67     -19.169  40.533 -16.827  0.00  0.00    +0.000 HD
ENDBRANCH 984 989
ENDBRANCH 666 980
BRANCH 257 992
ATOM    992  N1  U   B  27      -6.472  -0.101 -21.539  0.00  0.00    +0.000 N 
ATOM    993  C2  U   B  27      -6.106   0.201 -20.237  0.00  0.00    +0.000 A 
ATOM    994  O2  U   B  27      -4.949   0.377 -19.897  0.00  0.00    +0.000 OA
ATOM    995  N3  U   B  27      -7.147   0.293 -19.342  0.00  0.00    +0.000 N 
ATOM    996  C4  U   B  27      -8.485   0.115 -19.612  0.00  0.00    +0.000 A 
ATOM    997  O4  U   B  27      -9.305   0.230 -18.697  0.00  0.00    +0.000 OA
ATOM    998  C5  U   B  27      -8.784  -0.196 -20.981  0.00  0.00    +0.000 A 
ATOM    999  C6  U   B  27      -7.792  -0.289 -21.874  0.00  0.00    +0.000 A 
ATOM   1000  H   U   B  27      -6.910   0.509 -18.411  0.00  0.00    +0.000 HD
ENDBRANCH 257 992
BRANCH 2471001
ATOM   1001  N1  U   B  26      -9.485   2.912 -23.466  0.00  0.00    +0.000 N 
ATOM   1002  C2  U   B  26      -8.463   3.194 -22.574  0.00  0.00    +0.000 A 
ATOM   1003  O2  U   B  26      -7.302   3.330 -22.915  0.00  0.00    +0.000 OA
ATOM   1004  N3  U   B  26      -8.853   3.316 -21.260  0.00  0.00    +0.000 N 
ATOM   1005  C4  U   B  26     -10.130   3.183 -20.761  0.00  0.00    +0.000 A 
ATOM   1006  O4  U   B  26     -10.324   3.317 -19.551  0.00  0.00    +0.000 OA
ATOM   1007  C5  U   B  26     -11.128   2.888 -21.746  0.00  0.00    +0.000 A 
ATOM   1008  C6  U   B  26     -10.781   2.767 -23.032  0.00  0.00    +0.000 A 
ATOM   1009  H   U   B  26      -8.144   3.520 -20.608  0.00  0.00    +0.000 HD
ENDBRANCH 2471001
BRANCH 2371010
ATOM   1010  N1  U   B  25     -13.093   6.031 -23.101  0.00  0.00    +0.000 N 
ATOM   1011  C2  U   B  25     -11.754   6.293 -22.861  0.00  0.00    +0.000 A 
ATOM   1012  O2  U   B  25     -10.936   6.439 -23.752  0.00  0.00    +0.000 OA
ATOM   1013  N3  U   B  25     -11.404   6.379 -21.534  0.00  0.00    +0.000 N 
ATOM   1014  C4  U   B  25     -12.239   6.232 -20.447  0.00  0.00    +0.000 A 
ATOM   1015  O4  U   B  25     -11.776   6.334 -19.310  0.00  0.00    +0.000 OA
ATOM   1016  C5  U   B  25     -13.606   5.960 -20.777  0.00  0.00    +0.000 A 
ATOM   1017  C6  U   B  25     -13.977   5.873 -22.061  0.00  0.00    +0.000 A 
ATOM   1018  H   U   B  25     -10.457   6.565 -21.340  0.00  0.00    +0.000 HD
ENDBRANCH 2371010
BRANCH 2271019
ATOM   1019  N1  U   B  24     -16.069   9.122 -20.833  0.00  0.00    +0.000 N 
ATOM   1020  C2  U   B  24     -14.799   9.399 -21.319  0.00  0.00    +0.000 A 
ATOM   1021  O2  U   B  24     -14.562   9.567 -22.501  0.00  0.00    +0.000 OA
ATOM   1022  N3  U   B  24     -13.812   9.468 -20.364  0.00  0.00    +0.000 N 
ATOM   1023  C4  U   B  24     -13.963   9.293 -19.005  0.00  0.00    +0.000 A 
ATOM   1024  O4  U   B  24     -12.976   9.383 -18.273  0.00  0.00    +0.000 OA
ATOM   1025  C5  U   B  24     -15.303   9.011 -18.584  0.00  0.00    +0.000 A 
ATOM   1026  C6  U   B  24     -16.287   8.938 -19.491  0.00  0.00    +0.000 A 
ATOM   1027  H   U   B  24     -12.902   9.663 -20.685  0.00  0.00    +0.000 HD
ENDBRANCH 2271019
BRANCH 2171028
ATOM   1028  N1  U   B  23     -18.005  11.783 -16.877  0.00  0.00    +0.000 N 
ATOM   1029  C2  U   B  23     -17.376  12.427 -17.933  0.00  0.00    +0.000 A 
ATOM   1030  O2  U   B  23     -17.978  12.844 -18.905  0.00  0.00    +0.000 OA
ATOM   1031  N3  U   B  23     -16.015  12.562 -17.808  0.00  0.00    +0.000 N 
ATOM   1032  C4  U   B  23     -15.234  12.128 -16.757  0.00  0.00    +0.000 A 
ATOM   1033  O4  U   B  23     -14.016  12.323 -16.789  0.00  0.00    +0.000 OA
ATOM   1034  C5  U   B  23     -15.955  11.473 -15.708  0.00  0.00    +0.000 A 
ATOM   1035  C6  U   B  23     -17.285  11.327 -15.802  0.00  0.00    +0.000 A 
ATOM   1036  H   U   B  23     -15.548  13.016 -18.546  0.00  0.00    +0.000 HD
ENDBRANCH 2171028
BRANCH 1771037
ATOM   1037  N9  A   B  19      -6.854  20.396  -8.118  0.00  0.00    +0.000 N 
ATOM   1038  C8  A   B  19      -6.774  20.800  -9.428  0.00  0.00    +0.000 A 
ATOM   1039  N7  A   B  19      -7.932  21.157  -9.941  0.00  0.00    +0.000 NA
ATOM   1040  C5  A   B  19      -8.834  20.974  -8.901  0.00  0.00    +0.000 A 
ATOM   1041  C6  A   B  19     -10.221  21.176  -8.799  0.00  0.00    +0.000 A 
ATOM   1042  N1  A   B  19     -10.814  20.896  -7.617  0.00  0.00    +0.000 NA
ATOM   1043  C2  A   B  19     -10.056  20.445  -6.605  0.00  0.00    +0.000 A 
ATOM   1044  N3  A   B  19      -8.742  20.215  -6.577  0.00  0.00    +0.000 NA
ATOM   1045  C4  A   B  19      -8.182  20.506  -7.771  0.00  0.00    +0.000 A 
BRANCH10411046
ATOM   1046  N6  A   B  19     -10.982  21.624  -9.807  0.00  0.00    +0.000 N 
ATOM   1047  H   A   B  19     -10.572  21.835 -10.677  0.00  0.00    +0.000 HD
ATOM   1048  H   A   B  19     -11.951  21.743  -9.677  0.00  0.00    +0.000 HD
ENDBRANCH10411046
ENDBRANCH 1771037
BRANCH 1871049
ATOM   1049  N9  A   B  20      -9.751  16.797  -7.317  0.00  0.00    +0.000 N 
ATOM   1050  C8  A   B  20      -8.964  17.045  -8.416  0.00  0.00    +0.000 A 
ATOM   1051  N7  A   B  20      -9.600  17.662  -9.388  0.00  0.00    +0.000 NA
ATOM   1052  C5  A   B  20     -10.889  17.826  -8.900  0.00  0.00    +0.000 A 
ATOM   1053  C6  A   B  20     -12.046  18.408  -9.445  0.00  0.00    +0.000 A 
ATOM   1054  N1  A   B  20     -13.168  18.406  -8.690  0.00  0.00    +0.000 NA
ATOM   1055  C2  A   B  20     -13.123  17.853  -7.469  0.00  0.00    +0.000 A 
ATOM   1056  N3  A   B  20     -12.095  17.276  -6.844  0.00  0.00    +0.000 NA
ATOM   1057  C4  A   B  20     -10.995  17.296  -7.625  0.00  0.00    +0.000 A 
BRANCH10531058
ATOM   1058  N6  A   B  20     -12.095  18.954 -10.667  0.00  0.00    +0.000 N 
ATOM   1059  H   A   B  20     -11.290  18.966 -11.233  0.00  0.00    +0.000 HD
ATOM   1060  H   A   B  20     -12.936  19.343 -10.999  0.00  0.00    +0.000 HD
ENDBRANCH10531058
ENDBRANCH 1871049
BRANCH 1371061
ATOM   1061  N1  U   B  15      -6.838  31.072  -7.552  0.00  0.00    +0.000 N 
ATOM   1062  C2  U   B  15      -7.439  31.132  -8.797  0.00  0.00    +0.000 A 
ATOM   1063  O2  U   B  15      -6.805  31.237  -9.837  0.00  0.00    +0.000 OA
ATOM   1064  N3  U   B  15      -8.812  31.061  -8.783  0.00  0.00    +0.000 N 
ATOM   1065  C4  U   B  15      -9.623  30.939  -7.674  0.00  0.00    +0.000 A 
ATOM   1066  O4  U   B  15     -10.841  30.889  -7.825  0.00  0.00    +0.000 OA
ATOM   1067  C5  U   B  15      -8.927  30.886  -6.428  0.00  0.00    +0.000 A 
ATOM   1068  C6  U   B  15      -7.589  30.953  -6.409  0.00  0.00    +0.000 A 
ATOM   1069  H   U   B  15      -9.264  31.102  -9.657  0.00  0.00    +0.000 HD
ENDBRANCH 1371061
BRANCH 3671070
ATOM   1070  N1  U   B  38      -4.944 -30.608 -17.338  0.00  0.00    +0.000 N 
ATOM   1071  C2  U   B  38      -4.794 -30.230 -16.017  0.00  0.00    +0.000 A 
ATOM   1072  O2  U   B  38      -3.724 -29.892 -15.542  0.00  0.00    +0.000 OA
ATOM   1073  N3  U   B  38      -5.945 -30.261 -15.266  0.00  0.00    +0.000 N 
ATOM   1074  C4  U   B  38      -7.206 -30.622 -15.695  0.00  0.00    +0.000 A 
ATOM   1075  O4  U   B  38      -8.146 -30.598 -14.894  0.00  0.00    +0.000 OA
ATOM   1076  C5  U   B  38      -7.283 -30.997 -17.075  0.00  0.00    +0.000 A 
ATOM   1077  C6  U   B  38      -6.174 -30.975 -17.832  0.00  0.00    +0.000 A 
ATOM   1078  H   U   B  38      -5.861 -29.998 -14.321  0.00  0.00    +0.000 HD
ENDBRANCH 3671070
BRANCH 4571079
ATOM   1079  N1  U   B  47     -12.055 -18.260 -21.211  0.00  0.00    +0.000 N 
ATOM   1080  C2  U   B  47     -13.054 -18.521 -20.285  0.00  0.00    +0.000 A 
ATOM   1081  O2  U   B  47     -14.186 -18.838 -20.602  0.00  0.00    +0.000 OA
ATOM   1082  N3  U   B  47     -12.674 -18.402 -18.968  0.00  0.00    +0.000 N 
ATOM   1083  C4  U   B  47     -11.425 -18.049 -18.494  0.00  0.00    +0.000 A 
ATOM   1084  O4  U   B  47     -11.235 -17.982 -17.278  0.00  0.00    +0.000 OA
ATOM   1085  C5  U   B  47     -10.450 -17.793 -19.511  0.00  0.00    +0.000 A 
ATOM   1086  C6  U   B  47     -10.791 -17.903 -20.803  0.00  0.00    +0.000 A 
ATOM   1087  H   U   B  47     -13.365 -18.588 -18.292  0.00  0.00    +0.000 HD
ENDBRANCH 4571079
BRANCH 4471088
ATOM   1088  N1  U   B  46      -8.008 -20.739 -20.242  0.00  0.00    +0.000 N 
ATOM   1089  C2  U   B  46      -9.307 -21.090 -19.916  0.00  0.00    +0.000 A 
ATOM   1090  O2  U   B  46     -10.115 -21.480 -20.741  0.00  0.00    +0.000 OA
ATOM   1091  N3  U   B  46      -9.631 -20.971 -18.583  0.00  0.00    +0.000 N 
ATOM   1092  C4  U   B  46      -8.802 -20.540 -17.565  0.00  0.00    +0.000 A 
ATOM   1093  O4  U   B  46      -9.239 -20.485 -16.414  0.00  0.00    +0.000 OA
ATOM   1094  C5  U   B  46      -7.477 -20.194 -17.982  0.00  0.00    +0.000 A 
ATOM   1095  C6  U   B  46      -7.135 -20.302 -19.273  0.00  0.00    +0.000 A 
ATOM   1096  H   U   B  46     -10.549 -21.219 -18.329  0.00  0.00    +0.000 HD
ENDBRANCH 4471088
BRANCH 4371097
ATOM   1097  N1  U   B  45      -5.347 -23.405 -17.956  0.00  0.00    +0.000 N 
ATOM   1098  C2  U   B  45      -6.502 -23.758 -18.630  0.00  0.00    +0.000 A 
ATOM   1099  O2  U   B  45      -6.534 -24.016 -19.819  0.00  0.00    +0.000 OA
ATOM   1100  N3  U   B  45      -7.637 -23.799 -17.854  0.00  0.00    +0.000 N 
ATOM   1101  C4  U   B  45      -7.731 -23.527 -16.503  0.00  0.00    +0.000 A 
ATOM   1102  O4  U   B  45      -8.830 -23.611 -15.946  0.00  0.00    +0.000 OA
ATOM   1103  C5  U   B  45      -6.495 -23.170 -15.878  0.00  0.00    +0.000 A 
ATOM   1104  C6  U   B  45      -5.371 -23.126 -16.609  0.00  0.00    +0.000 A 
ATOM   1105  H   U   B  45      -8.472 -24.049 -18.311  0.00  0.00    +0.000 HD
ENDBRANCH 4371097
BRANCH 4771106
ATOM   1106  N1  U   B  49     -17.542 -12.305 -17.234  0.00  0.00    +0.000 N 
ATOM   1107  C2  U   B  49     -17.100 -12.540 -15.943  0.00  0.00    +0.000 A 
ATOM   1108  O2  U   B  49     -17.857 -12.724 -15.004  0.00  0.00    +0.000 OA
ATOM   1109  N3  U   B  49     -15.734 -12.557 -15.790  0.00  0.00    +0.000 N 
ATOM   1110  C4  U   B  49     -14.787 -12.361 -16.775  0.00  0.00    +0.000 A 
ATOM   1111  O4  U   B  49     -13.589 -12.403 -16.482  0.00  0.00    +0.000 OA
ATOM   1112  C5  U   B  49     -15.322 -12.119 -18.078  0.00  0.00    +0.000 A 
ATOM   1113  C6  U   B  49     -16.649 -12.099 -18.257  0.00  0.00    +0.000 A 
ATOM   1114  H   U   B  49     -15.395 -12.727 -14.881  0.00  0.00    +0.000 HD
ENDBRANCH 4771106
BRANCH 4171115
ATOM   1115  N9  A   B  43      -3.179 -26.686  -8.264  0.00  0.00    +0.000 N 
ATOM   1116  C8  A   B  43      -4.468 -27.140  -8.177  0.00  0.00    +0.000 A 
ATOM   1117  N7  A   B  43      -4.792 -27.992  -9.120  0.00  0.00    +0.000 NA
ATOM   1118  C5  A   B  43      -3.636 -28.106  -9.879  0.00  0.00    +0.000 A 
ATOM   1119  C6  A   B  43      -3.321 -28.859 -11.024  0.00  0.00    +0.000 A 
ATOM   1120  N1  A   B  43      -2.076 -28.745 -11.531  0.00  0.00    +0.000 NA
ATOM   1121  C2  A   B  43      -1.208 -27.927 -10.923  0.00  0.00    +0.000 A 
ATOM   1122  N3  A   B  43      -1.385 -27.168  -9.840  0.00  0.00    +0.000 NA
ATOM   1123  C4  A   B  43      -2.636 -27.308  -9.363  0.00  0.00    +0.000 A 
BRANCH11191124
ATOM   1124  N6  A   B  43      -4.190 -29.675 -11.635  0.00  0.00    +0.000 N 
ATOM   1125  H   A   B  43      -3.914 -30.178 -12.435  0.00  0.00    +0.000 HD
ATOM   1126  H   A   B  43      -5.105 -29.771 -11.284  0.00  0.00    +0.000 HD
ENDBRANCH11191124
ENDBRANCH 4171115
BRANCH 4871127
ATOM   1127  N1  U   B  50     -17.259  -9.161 -13.947  0.00  0.00    +0.000 N 
ATOM   1128  C2  U   B  50     -16.184  -9.459 -13.124  0.00  0.00    +0.000 A 
ATOM   1129  O2  U   B  50     -16.292  -9.618 -11.922  0.00  0.00    +0.000 OA
ATOM   1130  N3  U   B  50     -14.973  -9.567 -13.766  0.00  0.00    +0.000 N 
ATOM   1131  C4  U   B  50     -14.732  -9.407 -15.115  0.00  0.00    +0.000 A 
ATOM   1132  O4  U   B  50     -13.583  -9.533 -15.544  0.00  0.00    +0.000 OA
ATOM   1133  C5  U   B  50     -15.891  -9.098 -15.896  0.00  0.00    +0.000 A 
ATOM   1134  C6  U   B  50     -17.085  -8.989 -15.299  0.00  0.00    +0.000 A 
ATOM   1135  H   U   B  50     -14.195  -9.781 -13.203  0.00  0.00    +0.000 HD
ENDBRANCH 4871127
BRANCH 4071136
ATOM   1136  N1  U   B  42      -3.960 -29.418  -5.258  0.00  0.00    +0.000 N 
ATOM   1137  C2  U   B  42      -2.614 -29.127  -5.407  0.00  0.00    +0.000 A 
ATOM   1138  O2  U   B  42      -1.974 -28.496  -4.582  0.00  0.00    +0.000 OA
ATOM   1139  N3  U   B  42      -2.039 -29.602  -6.563  0.00  0.00    +0.000 N 
ATOM   1140  C4  U   B  42      -2.664 -30.322  -7.562  0.00  0.00    +0.000 A 
ATOM   1141  O4  U   B  42      -2.011 -30.679  -8.545  0.00  0.00    +0.000 OA
ATOM   1142  C5  U   B  42      -4.053 -30.581  -7.335  0.00  0.00    +0.000 A 
ATOM   1143  C6  U   B  42      -4.639 -30.131  -6.217  0.00  0.00    +0.000 A 
ATOM   1144  H   U   B  42      -1.082 -29.408  -6.691  0.00  0.00    +0.000 HD
ENDBRANCH 4071136
BRANCH 3971145
ATOM   1145  N1  U   B  41      -4.989 -33.985  -5.962  0.00  0.00    +0.000 N 
ATOM   1146  C2  U   B  41      -3.936 -33.560  -5.174  0.00  0.00    +0.000 A 
ATOM   1147  O2  U   B  41      -4.045 -33.328  -3.983  0.00  0.00    +0.000 OA
ATOM   1148  N3  U   B  41      -2.737 -33.415  -5.831  0.00  0.00    +0.000 N 
ATOM   1149  C4  U   B  41      -2.494 -33.647  -7.170  0.00  0.00    +0.000 A 
ATOM   1150  O4  U   B  41      -1.360 -33.473  -7.615  0.00  0.00    +0.000 OA
ATOM   1151  C5  U   B  41      -3.630 -34.084  -7.916  0.00  0.00    +0.000 A 
ATOM   1152  C6  U   B  41      -4.810 -34.237  -7.302  0.00  0.00    +0.000 A 
ATOM   1153  H   U   B  41      -1.972 -33.114  -5.290  0.00  0.00    +0.000 HD
ENDBRANCH 3971145
BRANCH 4971154
ATOM   1154  N1  U   B  51     -14.852  -6.261 -11.437  0.00  0.00    +0.000 N 
ATOM   1155  C2  U   B  51     -13.519  -6.636 -11.354  0.00  0.00    +0.000 A 
ATOM   1156  O2  U   B  51     -12.964  -6.879 -10.298  0.00  0.00    +0.000 OA
ATOM   1157  N3  U   B  51     -12.858  -6.712 -12.559  0.00  0.00    +0.000 N 
ATOM   1158  C4  U   B  51     -13.382  -6.457 -13.807  0.00  0.00    +0.000 A 
ATOM   1159  O4  U   B  51     -12.656  -6.569 -14.801  0.00  0.00    +0.000 OA
ATOM   1160  C5  U   B  51     -14.764  -6.077 -13.810  0.00  0.00    +0.000 A 
ATOM   1161  C6  U   B  51     -15.434  -5.994 -12.654  0.00  0.00    +0.000 A 
ATOM   1162  H   U   B  51     -11.910  -6.977 -12.525  0.00  0.00    +0.000 HD
ENDBRANCH 4971154
BRANCH 5071163
ATOM   1163  N1  U   B  52     -11.178  -3.694  -9.821  0.00  0.00    +0.000 N 
ATOM   1164  C2  U   B  52      -9.999  -4.077 -10.445  0.00  0.00    +0.000 A 
ATOM   1165  O2  U   B  52      -8.995  -4.393  -9.830  0.00  0.00    +0.000 OA
ATOM   1166  N3  U   B  52     -10.042  -4.077 -11.822  0.00  0.00    +0.000 N 
ATOM   1167  C4  U   B  52     -11.116  -3.739 -12.618  0.00  0.00    +0.000 A 
ATOM   1168  O4  U   B  52     -11.000  -3.789 -13.845  0.00  0.00    +0.000 OA
ATOM   1169  C5  U   B  52     -12.295  -3.354 -11.900  0.00  0.00    +0.000 A 
ATOM   1170  C6  U   B  52     -12.282  -3.345 -10.562  0.00  0.00    +0.000 A 
ATOM   1171  H   U   B  52      -9.218  -4.347 -12.288  0.00  0.00    +0.000 HD
ENDBRANCH 5071163
BRANCH 3771172
ATOM   1172  N1  U   B  39      -7.952 -39.080 -20.078  0.00  0.00    +0.000 N 
ATOM   1173  C2  U   B  39      -9.127 -39.735 -20.350  0.00  0.00    +0.000 A 
ATOM   1174  O2  U   B  39     -10.216 -39.190 -20.306  0.00  0.00    +0.000 OA
ATOM   1175  N3  U   B  39      -8.991 -41.066 -20.679  0.00  0.00    +0.000 N 
ATOM   1176  C4  U   B  39      -7.817 -41.789 -20.761  0.00  0.00    +0.000 A 
ATOM   1177  O4  U   B  39      -7.861 -42.976 -21.071  0.00  0.00    +0.000 OA
ATOM   1178  C5  U   B  39      -6.641 -41.044 -20.460  0.00  0.00    +0.000 A 
ATOM   1179  C6  U   B  39      -6.745 -39.746 -20.140  0.00  0.00    +0.000 A 
ATOM   1180  H   U   B  39      -9.822 -41.555 -20.877  0.00  0.00    +0.000 HD
ENDBRANCH 3771172
BRANCH 2671181
ATOM   1181  N1  U   B  28      -4.217  -2.964 -18.290  0.00  0.00    +0.000 N 
ATOM   1182  C2  U   B  28      -4.561  -2.647 -16.985  0.00  0.00    +0.000 A 
ATOM   1183  O2  U   B  28      -3.734  -2.442 -16.111  0.00  0.00    +0.000 OA
ATOM   1184  N3  U   B  28      -5.913  -2.575 -16.737  0.00  0.00    +0.000 N 
ATOM   1185  C4  U   B  28      -6.929  -2.786 -17.644  0.00  0.00    +0.000 A 
ATOM   1186  O4  U   B  28      -8.102  -2.685 -17.272  0.00  0.00    +0.000 OA
ATOM   1187  C5  U   B  28      -6.494  -3.112 -18.971  0.00  0.00    +0.000 A 
ATOM   1188  C6  U   B  28      -5.185  -3.186 -19.238  0.00  0.00    +0.000 A 
ATOM   1189  H   U   B  28      -6.182  -2.350 -15.817  0.00  0.00    +0.000 HD
ENDBRANCH 2671181
BRANCH 5171190
ATOM   1190  N9  A   B  53      -7.421  -1.040 -10.283  0.00  0.00    +0.000 N 
ATOM   1191  C8  A   B  53      -8.761  -0.770 -10.420  0.00  0.00    +0.000 A 
ATOM   1192  N7  A   B  53      -9.200  -0.892 -11.655  0.00  0.00    +0.000 NA
ATOM   1193  C5  A   B  53      -8.075  -1.260 -12.380  0.00  0.00    +0.000 A 
ATOM   1194  C6  A   B  53      -7.867  -1.543 -13.740  0.00  0.00    +0.000 A 
ATOM   1195  N1  A   B  53      -6.620  -1.885 -14.132  0.00  0.00    +0.000 NA
ATOM   1196  C2  A   B  53      -5.646  -1.934 -13.213  0.00  0.00    +0.000 A 
ATOM   1197  N3  A   B  53      -5.714  -1.692 -11.902  0.00  0.00    +0.000 NA
ATOM   1198  C4  A   B  53      -6.971  -1.355 -11.547  0.00  0.00    +0.000 A 
BRANCH11941199
ATOM   1199  N6  A   B  53      -8.838  -1.493 -14.661  0.00  0.00    +0.000 N 
ATOM   1200  H   A   B  53      -8.635  -1.701 -15.602  0.00  0.00    +0.000 HD
ATOM   1201  H   A   B  53      -9.754  -1.248 -14.397  0.00  0.00    +0.000 HD
ENDBRANCH11941199
ENDBRANCH 5171190
BRANCH 3471202
ATOM   1202  N1  U   B  36     -12.322 -25.230 -18.931  0.00  0.00    +0.000 N 
ATOM   1203  C2  U   B  36     -11.107 -24.822 -18.407  0.00  0.00    +0.000 A 
ATOM   1204  O2  U   B  36     -10.179 -24.440 -19.100  0.00  0.00    +0.000 OA
ATOM   1205  N3  U   B  36     -11.010 -24.878 -17.037  0.00  0.00    +0.000 N 
ATOM   1206  C4  U   B  36     -11.987 -25.291 -16.152  0.00  0.00    +0.000 A 
ATOM   1207  O4  U   B  36     -11.746 -25.284 -14.942  0.00  0.00    +0.000 OA
ATOM   1208  C5  U   B  36     -13.217 -25.699 -16.767  0.00  0.00    +0.000 A 
ATOM   1209  C6  U   B  36     -13.337 -25.654 -18.104  0.00  0.00    +0.000 A 
ATOM   1210  H   U   B  36     -10.153 -24.593 -16.645  0.00  0.00    +0.000 HD
ENDBRANCH 3471202
BRANCH 5271211
ATOM   1211  N9  A   B  54      -4.879   1.627 -12.994  0.00  0.00    +0.000 N 
ATOM   1212  C8  A   B  54      -6.060   1.968 -12.383  0.00  0.00    +0.000 A 
ATOM   1213  N7  A   B  54      -7.103   1.908 -13.184  0.00  0.00    +0.000 NA
ATOM   1214  C5  A   B  54      -6.574   1.507 -14.401  0.00  0.00    +0.000 A 
ATOM   1215  C6  A   B  54      -7.153   1.258 -15.657  0.00  0.00    +0.000 A 
ATOM   1216  N1  A   B  54      -6.337   0.867 -16.662  0.00  0.00    +0.000 NA
ATOM   1217  C2  A   B  54      -5.027   0.739 -16.416  0.00  0.00    +0.000 A 
ATOM   1218  N3  A   B  54      -4.361   0.942 -15.278  0.00  0.00    +0.000 NA
ATOM   1219  C4  A   B  54      -5.205   1.331 -14.299  0.00  0.00    +0.000 A 
BRANCH12151220
ATOM   1220  N6  A   B  54      -8.461   1.387 -15.906  0.00  0.00    +0.000 N 
ATOM   1221  H   A   B  54      -8.812   1.199 -16.807  0.00  0.00    +0.000 HD
ATOM   1222  H   A   B  54      -9.073   1.670 -15.189  0.00  0.00    +0.000 HD
ENDBRANCH12151220
ENDBRANCH 5271211
BRANCH 3271223
ATOM   1223  N9  A   B  34     -17.687 -19.848 -14.629  0.00  0.00    +0.000 N 
ATOM   1224  C8  A   B  34     -16.964 -19.903 -13.462  0.00  0.00    +0.000 A 
ATOM   1225  N7  A   B  34     -15.683 -19.676 -13.629  0.00  0.00    +0.000 NA
ATOM   1226  C5  A   B  34     -15.551 -19.460 -14.995  0.00  0.00    +0.000 A 
ATOM   1227  C6  A   B  34     -14.443 -19.169 -15.811  0.00  0.00    +0.000 A 
ATOM   1228  N1  A   B  34     -14.659 -19.016 -17.136  0.00  0.00    +0.000 NA
ATOM   1229  C2  A   B  34     -15.904 -19.148 -17.607  0.00  0.00    +0.000 A 
ATOM   1230  N3  A   B  34     -17.027 -19.417 -16.940  0.00  0.00    +0.000 NA
ATOM   1231  C4  A   B  34     -16.778 -19.564 -15.624  0.00  0.00    +0.000 A 
BRANCH12271232
ATOM   1232  N6  A   B  34     -13.193 -19.040 -15.341  0.00  0.00    +0.000 N 
ATOM   1233  H   A   B  34     -12.454 -18.835 -15.958  0.00  0.00    +0.000 HD
ATOM   1234  H   A   B  34     -13.015 -19.150 -14.379  0.00  0.00    +0.000 HD
ENDBRANCH12271232
ENDBRANCH 3271223
BRANCH 5371235
ATOM   1235  N9  A   B  55      -3.618   4.163 -16.967  0.00  0.00    +0.000 N 
ATOM   1236  C8  A   B  55      -4.316   4.463 -15.822  0.00  0.00    +0.000 A 
ATOM   1237  N7  A   B  55      -5.621   4.443 -15.982  0.00  0.00    +0.000 NA
ATOM   1238  C5  A   B  55      -5.794   4.113 -17.317  0.00  0.00    +0.000 A 
ATOM   1239  C6  A   B  55      -6.937   3.932 -18.112  0.00  0.00    +0.000 A 
ATOM   1240  N1  A   B  55      -6.757   3.603 -19.409  0.00  0.00    +0.000 NA
ATOM   1241  C2  A   B  55      -5.509   3.468 -19.874  0.00  0.00    +0.000 A 
ATOM   1242  N3  A   B  55      -4.351   3.612 -19.226  0.00  0.00    +0.000 NA
ATOM   1243  C4  A   B  55      -4.568   3.939 -17.935  0.00  0.00    +0.000 A 
BRANCH12391244
ATOM   1244  N6  A   B  55      -8.186   4.068 -17.649  0.00  0.00    +0.000 N 
ATOM   1245  H   A   B  55      -8.952   3.929 -18.251  0.00  0.00    +0.000 HD
ATOM   1246  H   A   B  55      -8.338   4.307 -16.706  0.00  0.00    +0.000 HD
ENDBRANCH12391244
ENDBRANCH 5371235
BRANCH 3171247
ATOM   1247  N1  U   B  33     -16.684 -16.617 -11.442  0.00  0.00    +0.000 N 
ATOM   1248  C2  U   B  33     -16.643 -16.375 -12.806  0.00  0.00    +0.000 A 
ATOM   1249  O2  U   B  33     -17.640 -16.145 -13.470  0.00  0.00    +0.000 OA
ATOM   1250  N3  U   B  33     -15.388 -16.406 -13.367  0.00  0.00    +0.000 N 
ATOM   1251  C4  U   B  33     -14.196 -16.654 -12.714  0.00  0.00    +0.000 A 
ATOM   1252  O4  U   B  33     -13.142 -16.653 -13.356  0.00  0.00    +0.000 OA
ATOM   1253  C5  U   B  33     -14.321 -16.900 -11.310  0.00  0.00    +0.000 A 
ATOM   1254  C6  U   B  33     -15.532 -16.873 -10.738  0.00  0.00    +0.000 A 
ATOM   1255  H   U   B  33     -15.333 -16.234 -14.335  0.00  0.00    +0.000 HD
ENDBRANCH 3171247
BRANCH 3071256
ATOM   1256  N9  A   B  32     -13.768 -13.604  -9.351  0.00  0.00    +0.000 N 
ATOM   1257  C8  A   B  32     -12.469 -13.985  -9.580  0.00  0.00    +0.000 A 
ATOM   1258  N7  A   B  32     -12.138 -13.990 -10.851  0.00  0.00    +0.000 NA
ATOM   1259  C5  A   B  32     -13.293 -13.589 -11.505  0.00  0.00    +0.000 A 
ATOM   1260  C6  A   B  32     -13.596 -13.393 -12.862  0.00  0.00    +0.000 A 
ATOM   1261  N1  A   B  32     -14.848 -12.989 -13.173  0.00  0.00    +0.000 NA
ATOM   1262  C2  A   B  32     -15.728 -12.796 -12.185  0.00  0.00    +0.000 A 
ATOM   1263  N3  A   B  32     -15.561 -12.945 -10.869  0.00  0.00    +0.000 NA
ATOM   1264  C4  A   B  32     -14.306 -13.348 -10.593  0.00  0.00    +0.000 A 
BRANCH12601265
ATOM   1265  N6  A   B  32     -12.714 -13.589 -13.853  0.00  0.00    +0.000 N 
ATOM   1266  H   A   B  32     -12.982 -13.436 -14.788  0.00  0.00    +0.000 HD
ATOM   1267  H   A   B  32     -11.799 -13.886 -13.646  0.00  0.00    +0.000 HD
ENDBRANCH12601265
ENDBRANCH 3071256
BRANCH 2971268
ATOM   1268  N9  A   B  31      -9.832 -11.011  -9.463  0.00  0.00    +0.000 N 
ATOM   1269  C8  A   B  31      -8.897 -11.420 -10.385  0.00  0.00    +0.000 A 
ATOM   1270  N7  A   B  31      -9.321 -11.370 -11.627  0.00  0.00    +0.000 NA
ATOM   1271  C5  A   B  31     -10.620 -10.899 -11.521  0.00  0.00    +0.000 A 
ATOM   1272  C6  A   B  31     -11.611 -10.623 -12.478  0.00  0.00    +0.000 A 
ATOM   1273  N1  A   B  31     -12.803 -10.163 -12.035  0.00  0.00    +0.000 NA
ATOM   1274  C2  A   B  31     -12.981  -9.993 -10.718  0.00  0.00    +0.000 A 
ATOM   1275  N3  A   B  31     -12.126 -10.214  -9.720  0.00  0.00    +0.000 NA
ATOM   1276  C4  A   B  31     -10.949 -10.673 -10.194  0.00  0.00    +0.000 A 
BRANCH12721277
ATOM   1277  N6  A   B  31     -11.433 -10.796 -13.795  0.00  0.00    +0.000 N 
ATOM   1278  H   A   B  31     -12.162 -10.586 -14.422  0.00  0.00    +0.000 HD
ATOM   1279  H   A   B  31     -10.573 -11.133 -14.135  0.00  0.00    +0.000 HD
ENDBRANCH12721277
ENDBRANCH 2971268
BRANCH 2871280
ATOM   1280  N9  A   B  30      -6.305  -8.583 -11.643  0.00  0.00    +0.000 N 
ATOM   1281  C8  A   B  30      -5.971  -8.916 -12.936  0.00  0.00    +0.000 A 
ATOM   1282  N7  A   B  30      -6.964  -8.786 -13.788  0.00  0.00    +0.000 NA
ATOM   1283  C5  A   B  30      -8.022  -8.339 -13.008  0.00  0.00    +0.000 A 
ATOM   1284  C6  A   B  30      -9.356  -8.008 -13.309  0.00  0.00    +0.000 A 
ATOM   1285  N1  A   B  30     -10.149  -7.594 -12.293  0.00  0.00    +0.000 NA
ATOM   1286  C2  A   B  30      -9.631  -7.519 -11.061  0.00  0.00    +0.000 A 
ATOM   1287  N3  A   B  30      -8.392  -7.800 -10.650  0.00  0.00    +0.000 NA
ATOM   1288  C4  A   B  30      -7.630  -8.209 -11.684  0.00  0.00    +0.000 A 
BRANCH12841289
ATOM   1289  N6  A   B  30      -9.877  -8.085 -14.540  0.00  0.00    +0.000 N 
ATOM   1290  H   A   B  30      -9.318  -8.384 -15.293  0.00  0.00    +0.000 HD
ATOM   1291  H   A   B  30     -10.819  -7.843 -14.692  0.00  0.00    +0.000 HD
ENDBRANCH12841289
ENDBRANCH 2871280
BRANCH 2771292
ATOM   1292  N9  A   B  29      -4.145  -5.860 -14.680  0.00  0.00    +0.000 N 
ATOM   1293  C8  A   B  29      -4.568  -6.049 -15.974  0.00  0.00    +0.000 A 
ATOM   1294  N7  A   B  29      -5.858  -5.858 -16.139  0.00  0.00    +0.000 NA
ATOM   1295  C5  A   B  29      -6.315  -5.526 -14.870  0.00  0.00    +0.000 A 
ATOM   1296  C6  A   B  29      -7.588  -5.206 -14.371  0.00  0.00    +0.000 A 
ATOM   1297  N1  A   B  29      -7.698  -4.923 -13.053  0.00  0.00    +0.000 NA
ATOM   1298  C2  A   B  29      -6.597  -4.961 -12.291  0.00  0.00    +0.000 A 
ATOM   1299  N3  A   B  29      -5.341  -5.247 -12.643  0.00  0.00    +0.000 NA
ATOM   1300  C4  A   B  29      -5.269  -5.524 -13.961  0.00  0.00    +0.000 A 
BRANCH12961301
ATOM   1301  N6  A   B  29      -8.692  -5.168 -15.128  0.00  0.00    +0.000 N 
ATOM   1302  H   A   B  29      -8.636  -5.370 -16.090  0.00  0.00    +0.000 HD
ATOM   1303  H   A   B  29      -9.559  -4.938 -14.723  0.00  0.00    +0.000 HD
ENDBRANCH12961301
ENDBRANCH 2771292
BRANCH 6961304
ATOM   1304  N9  A   B  70      -9.121  34.011  -3.116  0.00  0.00    +0.000 N 
ATOM   1305  C8  A   B  70      -8.281  35.094  -3.161  0.00  0.00    +0.000 A 
ATOM   1306  N7  A   B  70      -7.991  35.487  -4.381  0.00  0.00    +0.000 NA
ATOM   1307  C5  A   B  70      -8.694  34.605  -5.191  0.00  0.00    +0.000 A 
ATOM   1308  C6  A   B  70      -8.813  34.488  -6.590  0.00  0.00    +0.000 A 
ATOM   1309  N1  A   B  70      -9.590  33.503  -7.077  0.00  0.00    +0.000 NA
ATOM   1310  C2  A   B  70     -10.210  32.696  -6.213  0.00  0.00    +0.000 A 
ATOM   1311  N3  A   B  70     -10.180  32.702  -4.879  0.00  0.00    +0.000 NA
ATOM   1312  C4  A   B  70      -9.393  33.693  -4.425  0.00  0.00    +0.000 A 
BRANCH13081313
ATOM   1313  N6  A   B  70      -8.188  35.298  -7.454  0.00  0.00    +0.000 N 
ATOM   1314  H   A   B  70      -8.307  35.170  -8.423  0.00  0.00    +0.000 HD
ATOM   1315  H   A   B  70      -7.609  36.021  -7.120  0.00  0.00    +0.000 HD
ENDBRANCH13081313
ENDBRANCH 6961304
BRANCH  961316
ATOM   1316  N1  U   B  11     -17.958  19.427  -8.681  0.00  0.00    +0.000 N 
ATOM   1317  C2  U   B  11     -16.720  18.918  -8.338  0.00  0.00    +0.000 A 
ATOM   1318  O2  U   B  11     -16.522  18.264  -7.328  0.00  0.00    +0.000 OA
ATOM   1319  N3  U   B  11     -15.708  19.202  -9.229  0.00  0.00    +0.000 N 
ATOM   1320  C4  U   B  11     -15.813  19.930 -10.397  0.00  0.00    +0.000 A 
ATOM   1321  O4  U   B  11     -14.812  20.099 -11.094  0.00  0.00    +0.000 OA
ATOM   1322  C5  U   B  11     -17.129  20.424 -10.677  0.00  0.00    +0.000 A 
ATOM   1323  C6  U   B  11     -18.130  20.161  -9.830  0.00  0.00    +0.000 A 
ATOM   1324  H   U   B  11     -14.816  18.848  -9.009  0.00  0.00    +0.000 HD
ENDBRANCH  961316
BRANCH 6861325
ATOM   1325  N9  A   B  69     -12.213  37.114  -4.704  0.00  0.00    +0.000 N 
ATOM   1326  C8  A   B  69     -11.347  37.908  -5.412  0.00  0.00    +0.000 A 
ATOM   1327  N7  A   B  69     -11.023  37.416  -6.586  0.00  0.00    +0.000 NA
ATOM   1328  C5  A   B  69     -11.727  36.218  -6.654  0.00  0.00    +0.000 A 
ATOM   1329  C6  A   B  69     -11.816  35.224  -7.648  0.00  0.00    +0.000 A 
ATOM   1330  N1  A   B  69     -12.603  34.158  -7.405  0.00  0.00    +0.000 NA
ATOM   1331  C2  A   B  69     -13.260  34.099  -6.242  0.00  0.00    +0.000 A 
ATOM   1332  N3  A   B  69     -13.260  34.968  -5.229  0.00  0.00    +0.000 NA
ATOM   1333  C4  A   B  69     -12.462  36.020  -5.504  0.00  0.00    +0.000 A 
BRANCH13291334
ATOM   1334  N6  A   B  69     -11.154  35.280  -8.812  0.00  0.00    +0.000 N 
ATOM   1335  H   A   B  69     -11.254  34.555  -9.471  0.00  0.00    +0.000 HD
ATOM   1336  H   A   B  69     -10.567  36.046  -9.008  0.00  0.00    +0.000 HD
ENDBRANCH13291334
ENDBRANCH 6861325
BRANCH  461337
ATOM   1337  N9  A   B   6     -27.154  27.686 -12.397  0.00  0.00    +0.000 N 
ATOM   1338  C8  A   B   6     -25.964  27.109 -12.035  0.00  0.00    +0.000 A 
ATOM   1339  N7  A   B   6     -25.052  27.142 -12.980  0.00  0.00    +0.000 NA
ATOM   1340  C5  A   B   6     -25.689  27.785 -14.033  0.00  0.00    +0.000 A 
ATOM   1341  C6  A   B   6     -25.265  28.134 -15.327  0.00  0.00    +0.000 A 
ATOM   1342  N1  A   B   6     -26.147  28.771 -16.127  0.00  0.00    +0.000 NA
ATOM   1343  C2  A   B   6     -27.370  29.035 -15.654  0.00  0.00    +0.000 A 
ATOM   1344  N3  A   B   6     -27.883  28.758 -14.457  0.00  0.00    +0.000 NA
ATOM   1345  C4  A   B   6     -26.980  28.125 -13.689  0.00  0.00    +0.000 A 
BRANCH13411346
ATOM   1346  N6  A   B   6     -24.041  27.868 -15.805  0.00  0.00    +0.000 N 
ATOM   1347  H   A   B   6     -23.801  28.137 -16.721  0.00  0.00    +0.000 HD
ATOM   1348  H   A   B   6     -23.382  27.403 -15.240  0.00  0.00    +0.000 HD
ENDBRANCH13411346
ENDBRANCH  461337
BRANCH  361349
ATOM   1349  N1  U   B   5     -23.670  29.524 -10.122  0.00  0.00    +0.000 N 
ATOM   1350  C2  U   B   5     -24.383  30.152 -11.128  0.00  0.00    +0.000 A 
ATOM   1351  O2  U   B   5     -25.446  30.723 -10.934  0.00  0.00    +0.000 OA
ATOM   1352  N3  U   B   5     -23.808  30.094 -12.376  0.00  0.00    +0.000 N 
ATOM   1353  C4  U   B   5     -22.617  29.480 -12.713  0.00  0.00    +0.000 A 
ATOM   1354  O4  U   B   5     -22.230  29.510 -13.882  0.00  0.00    +0.000 OA
ATOM   1355  C5  U   B   5     -21.941  28.855 -11.621  0.00  0.00    +0.000 A 
ATOM   1356  C6  U   B   5     -22.478  28.898 -10.394  0.00  0.00    +0.000 A 
ATOM   1357  H   U   B   5     -24.297  30.537 -13.107  0.00  0.00    +0.000 HD
ENDBRANCH  361349
BRANCH 1071358
ATOM   1358  N1  U   B  12     -15.179  21.215  -5.322  0.00  0.00    +0.000 N 
ATOM   1359  C2  U   B  12     -13.864  20.933  -5.660  0.00  0.00    +0.000 A 
ATOM   1360  O2  U   B  12     -13.077  20.415  -4.885  0.00  0.00    +0.000 OA
ATOM   1361  N3  U   B  12     -13.505  21.278  -6.946  0.00  0.00    +0.000 N 
ATOM   1362  C4  U   B  12     -14.311  21.865  -7.899  0.00  0.00    +0.000 A 
ATOM   1363  O4  U   B  12     -13.843  22.117  -9.012  0.00  0.00    +0.000 OA
ATOM   1364  C5  U   B  12     -15.653  22.129  -7.472  0.00  0.00    +0.000 A 
ATOM   1365  C6  U   B  12     -16.030  21.802  -6.228  0.00  0.00    +0.000 A 
ATOM   1366  H   U   B  12     -12.577  21.085  -7.211  0.00  0.00    +0.000 HD
ENDBRANCH 1071358
BRANCH  861367
ATOM   1367  N1  U   B  10     -18.667  18.905 -13.559  0.00  0.00    +0.000 N 
ATOM   1368  C2  U   B  10     -17.752  18.183 -12.816  0.00  0.00    +0.000 A 
ATOM   1369  O2  U   B  10     -18.034  17.635 -11.767  0.00  0.00    +0.000 OA
ATOM   1370  N3  U   B  10     -16.485  18.131 -13.355  0.00  0.00    +0.000 N 
ATOM   1371  C4  U   B  10     -16.059  18.706 -14.528  0.00  0.00    +0.000 A 
ATOM   1372  O4  U   B  10     -14.888  18.564 -14.876  0.00  0.00    +0.000 OA
ATOM   1373  C5  U   B  10     -17.072  19.433 -15.237  0.00  0.00    +0.000 A 
ATOM   1374  C6  U   B  10     -18.310  19.505 -14.745  0.00  0.00    +0.000 A 
ATOM   1375  H   U   B  10     -15.811  17.627 -12.844  0.00  0.00    +0.000 HD
ENDBRANCH  861367
BRANCH  661376
ATOM   1376  N1  U   B   8     -33.947  18.334 -19.428  0.00  0.00    +0.000 N 
ATOM   1377  C2  U   B   8     -34.532  17.246 -20.051  0.00  0.00    +0.000 A 
ATOM   1378  O2  U   B   8     -34.223  16.089 -19.805  0.00  0.00    +0.000 OA
ATOM   1379  N3  U   B   8     -35.494  17.563 -20.988  0.00  0.00    +0.000 N 
ATOM   1380  C4  U   B   8     -35.925  18.820 -21.350  0.00  0.00    +0.000 A 
ATOM   1381  O4  U   B   8     -36.798  18.939 -22.212  0.00  0.00    +0.000 OA
ATOM   1382  C5  U   B   8     -35.275  19.893 -20.655  0.00  0.00    +0.000 A 
ATOM   1383  C6  U   B   8     -34.334  19.621 -19.740  0.00  0.00    +0.000 A 
ATOM   1384  H   U   B   8     -35.920  16.805 -21.450  0.00  0.00    +0.000 HD
ENDBRANCH  661376
BRANCH 6761385
ATOM   1385  N9  A   B  68     -14.691  39.766  -7.442  0.00  0.00    +0.000 N 
ATOM   1386  C8  A   B  68     -13.830  39.806  -8.511  0.00  0.00    +0.000 A 
ATOM   1387  N7  A   B  68     -13.728  38.660  -9.150  0.00  0.00    +0.000 NA
ATOM   1388  C5  A   B  68     -14.581  37.811  -8.447  0.00  0.00    +0.000 A 
ATOM   1389  C6  A   B  68     -14.925  36.458  -8.622  0.00  0.00    +0.000 A 
ATOM   1390  N1  A   B  68     -15.801  35.915  -7.756  0.00  0.00    +0.000 NA
ATOM   1391  C2  A   B  68     -16.298  36.684  -6.777  0.00  0.00    +0.000 A 
ATOM   1392  N3  A   B  68     -16.057  37.967  -6.510  0.00  0.00    +0.000 NA
ATOM   1393  C4  A   B  68     -15.179  38.479  -7.398  0.00  0.00    +0.000 A 
BRANCH13891394
ATOM   1394  N6  A   B  68     -14.423  35.686  -9.598  0.00  0.00    +0.000 N 
ATOM   1395  H   A   B  68     -13.781  36.063 -10.242  0.00  0.00    +0.000 HD
ATOM   1396  H   A   B  68     -14.697  34.743  -9.670  0.00  0.00    +0.000 HD
ENDBRANCH13891394
ENDBRANCH 6761385
BRANCH  251397
ATOM   1397  N9  A   B   4     -19.279  31.159  -9.856  0.00  0.00    +0.000 N 
ATOM   1398  C8  A   B   4     -18.539  30.769 -10.946  0.00  0.00    +0.000 A 
ATOM   1399  N7  A   B   4     -19.065  31.124 -12.095  0.00  0.00    +0.000 NA
ATOM   1400  C5  A   B   4     -20.227  31.791 -11.736  0.00  0.00    +0.000 A 
ATOM   1401  C6  A   B   4     -21.229  32.414 -12.493  0.00  0.00    +0.000 A 
ATOM   1402  N1  A   B   4     -22.253  32.987 -11.829  0.00  0.00    +0.000 NA
ATOM   1403  C2  A   B   4     -22.260  32.936 -10.491  0.00  0.00    +0.000 A 
ATOM   1404  N3  A   B   4     -21.375  32.381  -9.669  0.00  0.00    +0.000 NA
ATOM   1405  C4  A   B   4     -20.369  31.819 -10.364  0.00  0.00    +0.000 A 
BRANCH14011406
ATOM   1406  N6  A   B   4     -21.221  32.459 -13.834  0.00  0.00    +0.000 N 
ATOM   1407  H   A   B   4     -21.951  32.910 -14.316  0.00  0.00    +0.000 HD
ATOM   1408  H   A   B   4     -20.485  32.041 -14.336  0.00  0.00    +0.000 HD
ENDBRANCH14011406
ENDBRANCH  251397
BRANCH 1271409
ATOM   1409  N9  A   B  14      -8.223  27.004  -5.753  0.00  0.00    +0.000 N 
ATOM   1410  C8  A   B  14      -9.561  27.200  -5.515  0.00  0.00    +0.000 A 
ATOM   1411  N7  A   B  14     -10.248  27.496  -6.594  0.00  0.00    +0.000 NA
ATOM   1412  C5  A   B  14      -9.299  27.496  -7.608  0.00  0.00    +0.000 A 
ATOM   1413  C6  A   B  14      -9.383  27.736  -8.989  0.00  0.00    +0.000 A 
ATOM   1414  N1  A   B  14      -8.248  27.654  -9.717  0.00  0.00    +0.000 NA
ATOM   1415  C2  A   B  14      -7.105  27.351  -9.089  0.00  0.00    +0.000 A 
ATOM   1416  N3  A   B  14      -6.898  27.103  -7.796  0.00  0.00    +0.000 NA
ATOM   1417  C4  A   B  14      -8.051  27.193  -7.104  0.00  0.00    +0.000 A 
BRANCH14131418
ATOM   1418  N6  A   B  14     -10.524  28.041  -9.618  0.00  0.00    +0.000 N 
ATOM   1419  H   A   B  14     -10.523  28.199 -10.590  0.00  0.00    +0.000 HD
ATOM   1420  H   A   B  14     -11.364  28.107  -9.109  0.00  0.00    +0.000 HD
ENDBRANCH14131418
ENDBRANCH 1271409
BRANCH  761421
ATOM   1421  N9  A   B   9     -27.519  20.301 -20.265  0.00  0.00    +0.000 N 
ATOM   1422  C8  A   B   9     -28.524  20.863 -19.513  0.00  0.00    +0.000 A 
ATOM   1423  N7  A   B   9     -29.429  21.497 -20.224  0.00  0.00    +0.000 NA
ATOM   1424  C5  A   B   9     -28.979  21.347 -21.528  0.00  0.00    +0.000 A 
ATOM   1425  C6  A   B   9     -29.495  21.790 -22.756  0.00  0.00    +0.000 A 
ATOM   1426  N1  A   B   9     -28.809  21.474 -23.881  0.00  0.00    +0.000 NA
ATOM   1427  C2  A   B   9     -27.683  20.756 -23.767  0.00  0.00    +0.000 A 
ATOM   1428  N3  A   B   9     -27.097  20.282 -22.662  0.00  0.00    +0.000 NA
ATOM   1429  C4  A   B   9     -27.803  20.613 -21.568  0.00  0.00    +0.000 A 
BRANCH14251430
ATOM   1430  N6  A   B   9     -30.622  22.507 -22.869  0.00  0.00    +0.000 N 
ATOM   1431  H   A   B   9     -30.938  22.791 -23.757  0.00  0.00    +0.000 HD
ATOM   1432  H   A   B   9     -31.134  22.749 -22.064  0.00  0.00    +0.000 HD
ENDBRANCH14251430
ENDBRANCH  761421
BRANCH  111433
ATOM   1433  N6  A   B   3     -18.802  34.691 -14.998  0.00  0.00    +0.000 NA
ATOM   1434  H   A   B   3     -19.763  35.017 -14.897  0.00  0.00    +0.000 HD
ATOM   1435  H   A   B   3     -18.790  33.834 -15.551  0.00  0.00    +0.000 HD
ENDBRANCH  111433
BRANCH 6521436
ATOM   1436  N6  A   B  66     -20.113  37.466 -16.424  0.00  0.00    +0.000 NA
ATOM   1437  H   A   B  66     -19.259  37.190 -16.909  0.00  0.00    +0.000 HD
ATOM   1438  H   A   B  66     -20.310  38.448 -16.615  0.00  0.00    +0.000 HD
ENDBRANCH 6521436
BRANCH 4681439
ATOM   1439  OP2 U   B  49     -15.924 -10.623 -22.106  0.00  0.00    +0.000 OA
ATOM   1440  H   U   B  49     -15.453 -10.622 -22.954  0.00  0.00    +0.000 HD
ENDBRANCH 4681439
BRANCH 4761441
ATOM   1441  O2' U   B  49     -20.945 -11.115 -16.647  0.00  0.00    +0.000 OA
ATOM   1442  H   U   B  49     -21.441 -11.612 -17.316  0.00  0.00    +0.000 HD
ENDBRANCH 4761441
BRANCH 4661443
ATOM   1443  O2' A   B  48     -18.757 -14.475 -21.446  0.00  0.00    +0.000 OA
ATOM   1444  H   A   B  48     -18.779 -14.988 -22.269  0.00  0.00    +0.000 HD
ENDBRANCH 4661443
BRANCH 4581445
ATOM   1445  OP2 A   B  48     -11.623 -13.469 -23.247  0.00  0.00    +0.000 OA
ATOM   1446  H   A   B  48     -10.763 -13.403 -23.690  0.00  0.00    +0.000 HD
ENDBRANCH 4581445
BRANCH 5261447
ATOM   1447  O2' A   B  54      -1.334   2.434 -12.874  0.00  0.00    +0.000 OA
ATOM   1448  H   A   B  54      -1.069   2.029 -12.033  0.00  0.00    +0.000 HD
ENDBRANCH 5261447
BRANCH 5181449
ATOM   1449  OP1 A   B  54      -5.539   4.682  -7.327  0.00  0.00    +0.000 OA
ATOM   1450  H   A   B  54      -5.522   5.561  -7.737  0.00  0.00    +0.000 HD
ENDBRANCH 5181449
BRANCH 5281451
ATOM   1451  OP1 A   B  55      -1.172   7.099 -11.709  0.00  0.00    +0.000 OA
ATOM   1452  H   A   B  55      -1.278   7.973 -12.116  0.00  0.00    +0.000 HD
ENDBRANCH 5281451
BRANCH 4781453
ATOM   1453  OP1 U   B  50     -21.041  -6.696 -18.608  0.00  0.00    +0.000 OA
ATOM   1454  H   U   B  50     -21.186  -6.702 -19.567  0.00  0.00    +0.000 HD
ENDBRANCH 4781453
BRANCH 4861455
ATOM   1455  O2' U   B  50     -19.628  -7.789 -11.542  0.00  0.00    +0.000 OA
ATOM   1456  H   U   B  50     -20.453  -8.220 -11.815  0.00  0.00    +0.000 HD
ENDBRANCH 4861455
BRANCH 5161457
ATOM   1457  O2' A   B  53      -4.601   0.028  -8.247  0.00  0.00    +0.000 OA
ATOM   1458  H   A   B  53      -4.819  -0.372  -7.391  0.00  0.00    +0.000 HD
ENDBRANCH 5161457
BRANCH 5081459
ATOM   1459  OP1 A   B  53     -11.267   1.916  -6.011  0.00  0.00    +0.000 OA
ATOM   1460  H   A   B  53     -11.034   2.814  -6.293  0.00  0.00    +0.000 HD
ENDBRANCH 5081459
BRANCH 5061461
ATOM   1461  O2' U   B  52      -9.950  -2.738  -6.523  0.00  0.00    +0.000 OA
ATOM   1462  H   U   B  52     -10.609  -3.150  -5.943  0.00  0.00    +0.000 HD
ENDBRANCH 5061461
BRANCH 4881463
ATOM   1463  OP1 U   B  51     -20.409  -3.284 -13.039  0.00  0.00    +0.000 OA
ATOM   1464  H   U   B  51     -21.068  -3.210 -13.747  0.00  0.00    +0.000 HD
ENDBRANCH 4881463
BRANCH 4981465
ATOM   1465  OP1 U   B  52     -16.622  -0.498  -8.341  0.00  0.00    +0.000 OA
ATOM   1466  H   U   B  52     -17.524  -0.319  -8.649  0.00  0.00    +0.000 HD
ENDBRANCH 4981465
BRANCH 4961467
ATOM   1467  O2' U   B  51     -15.406  -5.126  -8.019  0.00  0.00    +0.000 OA
ATOM   1468  H   U   B  51     -16.271  -5.517  -7.819  0.00  0.00    +0.000 HD
ENDBRANCH 4961467
BRANCH 6851469
ATOM   1469  O2' A   B  69     -12.546  36.517  -1.129  0.00  0.00    +0.000 OA
ATOM   1470  H   A   B  69     -13.224  37.164  -0.879  0.00  0.00    +0.000 HD
ENDBRANCH 6851469
BRANCH 6061471
ATOM   1471  O2' C   B  62     -26.253  29.282 -26.015  0.00  0.00    +0.000 OA
ATOM   1472  H   C   B  62     -25.858  28.831 -26.778  0.00  0.00    +0.000 HD
ENDBRANCH 6061471
BRANCH 6951473
ATOM   1473  O2' A   B  70      -9.093  31.518  -0.449  0.00  0.00    +0.000 OA
ATOM   1474  H   A   B  70      -9.916  31.724   0.022  0.00  0.00    +0.000 HD
ENDBRANCH 6951473
BRANCH 6871475
ATOM   1475  OP1 A   B  70      -8.807  38.761   0.982  0.00  0.00    +0.000 OA
ATOM   1476  H   A   B  70      -8.894  39.727   0.974  0.00  0.00    +0.000 HD
ENDBRANCH 6871475
BRANCH 6081477
ATOM   1477  OP2 U   B  63     -22.433  31.778 -24.024  0.00  0.00    +0.000 OA
ATOM   1478  H   U   B  63     -21.628  31.617 -24.541  0.00  0.00    +0.000 HD
ENDBRANCH 6081477
BRANCH 6161479
ATOM   1479  O2' U   B  63     -29.367  32.939 -21.657  0.00  0.00    +0.000 OA
ATOM   1480  H   U   B  63     -29.596  32.677 -22.563  0.00  0.00    +0.000 HD
ENDBRANCH 6161479
BRANCH 3761481
ATOM   1481  O2' U   B  39      -8.862 -36.266 -17.925  0.00  0.00    +0.000 OA
ATOM   1482  H   U   B  39      -8.474 -35.515 -18.400  0.00  0.00    +0.000 HD
ENDBRANCH 3761481
BRANCH 6181483
ATOM   1483  OP2 A   B  64     -25.365  35.677 -21.846  0.00  0.00    +0.000 OA
ATOM   1484  H   A   B  64     -24.969  35.728 -22.730  0.00  0.00    +0.000 HD
ENDBRANCH 6181483
BRANCH 6261485
ATOM   1485  O2' A   B  64     -29.875  35.445 -15.956  0.00  0.00    +0.000 OA
ATOM   1486  H   A   B  64     -30.567  35.308 -16.622  0.00  0.00    +0.000 HD
ENDBRANCH 6261485
BRANCH 6281487
ATOM   1487  OP1 C   B  65     -28.807  40.064 -17.090  0.00  0.00    +0.000 OA
ATOM   1488  H   C   B  65     -29.101  40.267 -17.992  0.00  0.00    +0.000 HD
ENDBRANCH 6281487
BRANCH 5981489
ATOM   1489  OP2 C   B  62     -19.838  27.653 -22.703  0.00  0.00    +0.000 OA
ATOM   1490  H   C   B  62     -18.918  27.444 -22.476  0.00  0.00    +0.000 HD
ENDBRANCH 5981489
BRANCH 6361491
ATOM   1491  O2' C   B  65     -26.538  37.084 -10.768  0.00  0.00    +0.000 OA
ATOM   1492  H   C   B  65     -27.491  36.945 -10.881  0.00  0.00    +0.000 HD
ENDBRANCH 6361491
BRANCH 6771493
ATOM   1493  OP1 A   B  69     -10.481  43.196  -3.347  0.00  0.00    +0.000 OA
ATOM   1494  H   A   B  69     -10.322  44.058  -3.762  0.00  0.00    +0.000 HD
ENDBRANCH 6771493
BRANCH 6381495
ATOM   1495  OP1 A   B  66     -26.505  41.929 -11.314  0.00  0.00    +0.000 OA
ATOM   1496  H   A   B  66     -27.318  42.215 -11.759  0.00  0.00    +0.000 HD
ENDBRANCH 6381495
BRANCH 6461497
ATOM   1497  O2' A   B  66     -20.594  38.459  -8.656  0.00  0.00    +0.000 OA
ATOM   1498  H   A   B  66     -21.383  38.195  -8.158  0.00  0.00    +0.000 HD
ENDBRANCH 6461497
BRANCH 6571499
ATOM   1499  OP1 A   B  67     -22.786  43.208  -8.388  0.00  0.00    +0.000 OA
ATOM   1500  H   A   B  67     -23.636  42.905  -8.743  0.00  0.00    +0.000 HD
ENDBRANCH 6571499
BRANCH 6651501
ATOM   1501  O2' A   B  67     -15.766  40.493  -9.436  0.00  0.00    +0.000 OA
ATOM   1502  H   A   B  67     -16.360  40.447  -8.671  0.00  0.00    +0.000 HD
ENDBRANCH 6651501
BRANCH 6751503
ATOM   1503  O2' A   B  68     -14.786  41.473  -4.219  0.00  0.00    +0.000 OA
ATOM   1504  H   A   B  68     -15.230  42.303  -4.452  0.00  0.00    +0.000 HD
ENDBRANCH 6751503
BRANCH 6671505
ATOM   1505  OP1 A   B  68     -15.677  45.464 -10.243  0.00  0.00    +0.000 OA
ATOM   1506  H   A   B  68     -16.167  45.254 -11.053  0.00  0.00    +0.000 HD
ENDBRANCH 6671505
BRANCH 5681507
ATOM   1507  OP2 A   B  59      -9.735  17.931 -25.399  0.00  0.00    +0.000 OA
ATOM   1508  H   A   B  59      -8.819  17.978 -25.716  0.00  0.00    +0.000 HD
ENDBRANCH 5681507
BRANCH 5381509
ATOM   1509  OP2 A   B  56      -1.964   9.022 -16.221  0.00  0.00    +0.000 OA
ATOM   1510  H   A   B  56      -2.295   9.917 -16.393  0.00  0.00    +0.000 HD
ENDBRANCH 5381509
BRANCH 5461511
ATOM   1511  O2' A   B  56      -2.887   8.029 -23.550  0.00  0.00    +0.000 OA
ATOM   1512  H   A   B  56      -2.051   7.547 -23.448  0.00  0.00    +0.000 HD
ENDBRANCH 5461511
BRANCH 5481513
ATOM   1513  OP2 A   B  57      -2.917  11.877 -20.620  0.00  0.00    +0.000 OA
ATOM   1514  H   A   B  57      -3.298  12.767 -20.568  0.00  0.00    +0.000 HD
ENDBRANCH 5481513
BRANCH 5561515
ATOM   1515  O2' A   B  57      -7.394  11.163 -26.513  0.00  0.00    +0.000 OA
ATOM   1516  H   A   B  57      -6.633  10.676 -26.867  0.00  0.00    +0.000 HD
ENDBRANCH 5561515
BRANCH 5581517
ATOM   1517  OP2 C   B  58      -6.106  14.812 -23.810  0.00  0.00    +0.000 OA
ATOM   1518  H   C   B  58      -6.409  15.697 -23.553  0.00  0.00    +0.000 HD
ENDBRANCH 5581517
BRANCH 5661519
ATOM   1519  O2' C   B  58     -12.410  14.527 -27.754  0.00  0.00    +0.000 OA
ATOM   1520  H   C   B  58     -11.822  14.110 -28.403  0.00  0.00    +0.000 HD
ENDBRANCH 5661519
BRANCH 7221521
ATOM   1521  O2' C   B  72       1.298  27.226   4.468  0.00  0.00    +0.000 OA
ATOM   1522  H   C   B  72       1.622  26.321   4.600  0.00  0.00    +0.000 HD
ENDBRANCH 7221521
BRANCH 5361523
ATOM   1523  O2' A   B  55      -0.476   5.026 -18.587  0.00  0.00    +0.000 OA
ATOM   1524  H   A   B  55       0.167   4.563 -18.027  0.00  0.00    +0.000 HD
ENDBRANCH 5361523
BRANCH 7151525
ATOM   1525  OP1 C   B  72      -5.333  29.158   4.657  0.00  0.00    +0.000 OA
ATOM   1526  H   C   B  72      -5.954  29.758   4.216  0.00  0.00    +0.000 HD
ENDBRANCH 7151525
BRANCH 5761527
ATOM   1527  O2' A   B  59     -17.156  17.303 -24.882  0.00  0.00    +0.000 OA
ATOM   1528  H   A   B  59     -17.039  16.994 -25.794  0.00  0.00    +0.000 HD
ENDBRANCH 5761527
BRANCH 7091529
ATOM   1529  O2  U   B  71      -3.202  28.837  -3.135  0.00  0.00    +0.000 OA
ATOM   1530  H   U   B  71      -2.783  28.691  -3.997  0.00  0.00    +0.000 HD
ENDBRANCH 7091529
BRANCH 6971531
ATOM   1531  OP1 U   B  71      -6.546  33.976   3.188  0.00  0.00    +0.000 OA
ATOM   1532  H   U   B  71      -7.024  34.811   3.308  0.00  0.00    +0.000 HD
ENDBRANCH 6971531
BRANCH 5781533
ATOM   1533  OP2 G   B  60     -13.998  20.938 -24.073  0.00  0.00    +0.000 OA
ATOM   1534  H   G   B  60     -13.409  21.121 -24.822  0.00  0.00    +0.000 HD
ENDBRANCH 5781533
BRANCH 5861535
ATOM   1535  O2' G   B  60     -19.920  19.775 -19.647  0.00  0.00    +0.000 OA
ATOM   1536  H   G   B  60     -20.338  19.485 -20.473  0.00  0.00    +0.000 HD
ENDBRANCH 5861535
BRANCH 5881537
ATOM   1537  OP2 A   B  61     -18.992  24.019 -19.593  0.00  0.00    +0.000 OA
ATOM   1538  H   A   B  61     -19.955  24.027 -19.707  0.00  0.00    +0.000 HD
ENDBRANCH 5881537
BRANCH 5961539
ATOM   1539  O2' A   B  61     -21.425  24.802 -26.429  0.00  0.00    +0.000 OA
ATOM   1540  H   A   B  61     -20.653  24.277 -26.691  0.00  0.00    +0.000 HD
ENDBRANCH 5961539
BRANCH 1581541
ATOM   1541  OP2 G   B  18      -3.252  26.081 -15.240  0.00  0.00    +0.000 OA
ATOM   1542  H   G   B  18      -3.504  26.803 -15.837  0.00  0.00    +0.000 HD
ENDBRANCH 1581541
BRANCH 1061543
ATOM   1543  O2' U   B  12     -14.979  21.342  -1.681  0.00  0.00    +0.000 OA
ATOM   1544  H   U   B  12     -15.759  20.825  -1.426  0.00  0.00    +0.000 HD
ENDBRANCH 1061543
BRANCH 1081545
ATOM   1545  OP1 C   B  13     -16.433  25.820  -0.602  0.00  0.00    +0.000 OA
ATOM   1546  H   C   B  13     -16.155  26.749  -0.625  0.00  0.00    +0.000 HD
ENDBRANCH 1081545
BRANCH 1161547
ATOM   1547  O2' C   B  13      -9.427  24.171  -1.536  0.00  0.00    +0.000 OA
ATOM   1548  H   C   B  13      -9.887  23.577  -0.923  0.00  0.00    +0.000 HD
ENDBRANCH 1161547
BRANCH 1181549
ATOM   1549  OP1 A   B  14     -10.484  28.488   0.232  0.00  0.00    +0.000 OA
ATOM   1550  H   A   B  14     -10.317  29.431   0.078  0.00  0.00    +0.000 HD
ENDBRANCH 1181549
BRANCH 1261551
ATOM   1551  O2' A   B  14      -4.908  27.328  -4.322  0.00  0.00    +0.000 OA
ATOM   1552  H   A   B  14      -4.924  26.668  -3.611  0.00  0.00    +0.000 HD
ENDBRANCH 1261551
BRANCH 1281553
ATOM   1553  OP2 U   B  15      -7.293  31.259  -2.684  0.00  0.00    +0.000 OA
ATOM   1554  H   U   B  15      -7.314  32.226  -2.752  0.00  0.00    +0.000 HD
ENDBRANCH 1281553
BRANCH 1361555
ATOM   1555  O2' U   B  15      -4.844  33.503  -7.874  0.00  0.00    +0.000 OA
ATOM   1556  H   U   B  15      -4.301  33.224  -8.628  0.00  0.00    +0.000 HD
ENDBRANCH 1361555
BRANCH 1381557
ATOM   1557  OP1 C   B  16      -0.493  31.833  -6.091  0.00  0.00    +0.000 OA
ATOM   1558  H   C   B  16      -0.557  30.881  -6.266  0.00  0.00    +0.000 HD
ENDBRANCH 1381557
BRANCH 1461559
ATOM   1559  O2' C   B  16       2.176  31.306 -12.859  0.00  0.00    +0.000 OA
ATOM   1560  H   C   B  16       2.215  32.264 -12.709  0.00  0.00    +0.000 HD
ENDBRANCH 1461559
BRANCH 1481561
ATOM   1561  OP2 C   B  17      -2.467  30.079 -11.511  0.00  0.00    +0.000 OA
ATOM   1562  H   C   B  17      -3.185  29.454 -11.695  0.00  0.00    +0.000 HD
ENDBRANCH 1481561
BRANCH 1561563
ATOM   1563  O2' C   B  17       1.626  25.088 -15.131  0.00  0.00    +0.000 OA
ATOM   1564  H   C   B  17       2.065  25.864 -15.513  0.00  0.00    +0.000 HD
ENDBRANCH 1561563
BRANCH  951565
ATOM   1565  O2' U   B  11     -19.642  19.390  -5.435  0.00  0.00    +0.000 OA
ATOM   1566  H   U   B  11     -20.507  19.020  -5.670  0.00  0.00    +0.000 HD
ENDBRANCH  951565
BRANCH 1661567
ATOM   1567  O2' G   B  18      -2.173  22.787  -9.823  0.00  0.00    +0.000 OA
ATOM   1568  H   G   B  18      -1.475  23.235 -10.327  0.00  0.00    +0.000 HD
ENDBRANCH 1661567
BRANCH 4561569
ATOM   1569  O2' U   B  47     -14.046 -17.527 -24.174  0.00  0.00    +0.000 OA
ATOM   1570  H   U   B  47     -13.575 -18.031 -24.856  0.00  0.00    +0.000 HD
ENDBRANCH 4561569
BRANCH 1761571
ATOM   1571  O2' A   B  19      -5.232  18.103  -5.787  0.00  0.00    +0.000 OA
ATOM   1572  H   A   B  19      -4.361  18.517  -5.681  0.00  0.00    +0.000 HD
ENDBRANCH 1761571
BRANCH 1781573
ATOM   1573  OP1 A   B  20      -3.914  14.306  -8.573  0.00  0.00    +0.000 OA
ATOM   1574  H   A   B  20      -3.094  14.482  -9.061  0.00  0.00    +0.000 HD
ENDBRANCH 1781573
BRANCH 1861575
ATOM   1575  O2' A   B  20     -10.106  14.266  -4.728  0.00  0.00    +0.000 OA
ATOM   1576  H   A   B  20      -9.328  14.439  -4.175  0.00  0.00    +0.000 HD
ENDBRANCH 1861575
BRANCH 1881577
ATOM   1577  OP1 A   B  21      -8.796  10.175  -6.930  0.00  0.00    +0.000 OA
ATOM   1578  H   A   B  21      -9.079   9.513  -7.580  0.00  0.00    +0.000 HD
ENDBRANCH 1881577
BRANCH 1961579
ATOM   1579  O2' A   B  21     -15.680  12.589  -6.953  0.00  0.00    +0.000 OA
ATOM   1580  H   A   B  21     -15.277  12.566  -6.071  0.00  0.00    +0.000 HD
ENDBRANCH 1961579
BRANCH 1981581
ATOM   1581  OP1 C   B  22     -15.076   8.096  -8.492  0.00  0.00    +0.000 OA
ATOM   1582  H   C   B  22     -15.256   7.521  -9.252  0.00  0.00    +0.000 HD
ENDBRANCH 1981581
BRANCH 2061583
ATOM   1583  O2' C   B  22     -19.853  12.174 -11.972  0.00  0.00    +0.000 OA
ATOM   1584  H   C   B  22     -19.997  12.248 -11.016  0.00  0.00    +0.000 HD
ENDBRANCH 2061583
BRANCH 2081585
ATOM   1585  OP1 U   B  23     -19.655   7.311 -12.344  0.00  0.00    +0.000 OA
ATOM   1586  H   U   B  23     -19.537   6.587 -12.979  0.00  0.00    +0.000 HD
ENDBRANCH 2081585
BRANCH 2161587
ATOM   1587  O2' U   B  23     -21.088  10.680 -18.475  0.00  0.00    +0.000 OA
ATOM   1588  H   U   B  23     -21.751  10.913 -17.806  0.00  0.00    +0.000 HD
ENDBRANCH 2161587
BRANCH  351589
ATOM   1589  O2' U   B   5     -26.279  28.955  -7.642  0.00  0.00    +0.000 OA
ATOM   1590  H   U   B   5     -25.835  29.227  -6.823  0.00  0.00    +0.000 HD
ENDBRANCH  351589
BRANCH   51591
ATOM   1591  O2' A   B   3     -14.739  31.463  -9.153  0.00  0.00    +0.000 OA
ATOM   1592  H   A   B   3     -13.786  31.610  -9.046  0.00  0.00    +0.000 HD
ENDBRANCH   51591
BRANCH  161593
ATOM   1593  OP1 A   B   4     -14.729  26.714 -10.216  0.00  0.00    +0.000 OA
ATOM   1594  H   A   B   4     -13.989  26.412 -10.765  0.00  0.00    +0.000 HD
ENDBRANCH  161593
BRANCH  241595
ATOM   1595  O2' A   B   4     -20.037  30.018  -6.482  0.00  0.00    +0.000 OA
ATOM   1596  H   A   B   4     -19.186  30.150  -6.035  0.00  0.00    +0.000 HD
ENDBRANCH  241595
BRANCH 1681597
ATOM   1597  OP1 A   B  19      -2.262  18.570 -12.236  0.00  0.00    +0.000 OA
ATOM   1598  H   A   B  19      -1.896  18.655 -13.130  0.00  0.00    +0.000 HD
ENDBRANCH 1681597
BRANCH  371599
ATOM   1599  OP1 A   B   6     -26.330  24.138  -6.951  0.00  0.00    +0.000 OA
ATOM   1600  H   A   B   6     -26.596  23.296  -7.353  0.00  0.00    +0.000 HD
ENDBRANCH  371599
BRANCH  451601
ATOM   1601  O2' A   B   6     -30.717  27.332 -11.845  0.00  0.00    +0.000 OA
ATOM   1602  H   A   B   6     -30.820  27.683 -10.947  0.00  0.00    +0.000 HD
ENDBRANCH  451601
BRANCH  471603
ATOM   1603  OP1 C   B   7     -31.412  22.615 -10.941  0.00  0.00    +0.000 OA
ATOM   1604  H   C   B   7     -31.490  21.770 -11.411  0.00  0.00    +0.000 HD
ENDBRANCH  471603
BRANCH  551605
ATOM   1605  O2' C   B   7     -32.512  26.079 -17.413  0.00  0.00    +0.000 OA
ATOM   1606  H   C   B   7     -32.940  26.589 -16.707  0.00  0.00    +0.000 HD
ENDBRANCH  551605
BRANCH  571607
ATOM   1607  OP2 U   B   8     -34.999  21.987 -16.154  0.00  0.00    +0.000 OA
ATOM   1608  H   U   B   8     -35.702  22.536 -16.535  0.00  0.00    +0.000 HD
ENDBRANCH  571607
BRANCH  651609
ATOM   1609  O2' U   B   8     -31.005  17.173 -19.637  0.00  0.00    +0.000 OA
ATOM   1610  H   U   B   8     -31.057  16.389 -19.069  0.00  0.00    +0.000 HD
ENDBRANCH  651609
BRANCH  671611
ATOM   1611  OP2 A   B   9     -29.452  18.476 -14.928  0.00  0.00    +0.000 OA
ATOM   1612  H   A   B   9     -29.592  19.320 -15.384  0.00  0.00    +0.000 HD
ENDBRANCH  671611
BRANCH  751613
ATOM   1613  O2' A   B   9     -24.795  20.903 -18.605  0.00  0.00    +0.000 OA
ATOM   1614  H   A   B   9     -24.093  20.494 -19.135  0.00  0.00    +0.000 HD
ENDBRANCH  751613
BRANCH  771615
ATOM   1615  OP2 U   B  10     -24.278  17.500 -15.549  0.00  0.00    +0.000 OA
ATOM   1616  H   U   B  10     -24.990  16.880 -15.772  0.00  0.00    +0.000 HD
ENDBRANCH  771615
BRANCH  851617
ATOM   1617  O2' U   B  10     -20.059  20.948 -11.578  0.00  0.00    +0.000 OA
ATOM   1618  H   U   B  10     -20.327  20.363 -10.852  0.00  0.00    +0.000 HD
ENDBRANCH  851617
BRANCH  871619
ATOM   1619  OP1 U   B  11     -24.879  19.833 -10.792  0.00  0.00    +0.000 OA
ATOM   1620  H   U   B  11     -25.243  19.879 -11.690  0.00  0.00    +0.000 HD
ENDBRANCH  871619
BRANCH 3961621
ATOM   1621  O2' U   B  41      -7.806 -32.975  -3.871  0.00  0.00    +0.000 OA
ATOM   1622  H   U   B  41      -8.410 -33.726  -3.984  0.00  0.00    +0.000 HD
ENDBRANCH 3961621
BRANCH 3381623
ATOM   1623  OP2 U   B  36     -16.822 -28.134 -17.793  0.00  0.00    +0.000 OA
ATOM   1624  H   U   B  36     -16.267 -28.929 -17.753  0.00  0.00    +0.000 HD
ENDBRANCH 3381623
BRANCH 3461625
ATOM   1625  O2' U   B  36     -11.356 -25.996 -22.361  0.00  0.00    +0.000 OA
ATOM   1626  H   U   B  36     -12.080 -25.595 -22.867  0.00  0.00    +0.000 HD
ENDBRANCH 3461625
BRANCH 3481627
ATOM   1627  OP2 A   B  37     -12.713 -30.177 -20.498  0.00  0.00    +0.000 OA
ATOM   1628  H   A   B  37     -13.665 -30.360 -20.543  0.00  0.00    +0.000 HD
ENDBRANCH 3481627
BRANCH 3561629
ATOM   1629  O2' A   B  37      -5.585 -28.641 -21.936  0.00  0.00    +0.000 OA
ATOM   1630  H   A   B  37      -5.943 -28.197 -22.721  0.00  0.00    +0.000 HD
ENDBRANCH 3561629
BRANCH 3581631
ATOM   1631  OP2 U   B  38      -8.262 -32.638 -21.135  0.00  0.00    +0.000 OA
ATOM   1632  H   U   B  38      -9.041 -32.703 -21.710  0.00  0.00    +0.000 HD
ENDBRANCH 3581631
BRANCH 3661633
ATOM   1633  O2' U   B  38      -1.519 -31.531 -18.138  0.00  0.00    +0.000 OA
ATOM   1634  H   U   B  38      -1.346 -31.021 -18.945  0.00  0.00    +0.000 HD
ENDBRANCH 3661633
BRANCH 3681635
ATOM   1635  OP1 U   B  39      -1.550 -35.783 -19.031  0.00  0.00    +0.000 OA
ATOM   1636  H   U   B  39      -0.680 -35.662 -19.442  0.00  0.00    +0.000 HD
ENDBRANCH 3681635
BRANCH 2181637
ATOM   1637  OP2 U   B  24     -18.995   6.509 -16.728  0.00  0.00    +0.000 OA
ATOM   1638  H   U   B  24     -18.545   5.696 -17.004  0.00  0.00    +0.000 HD
ENDBRANCH 2181637
BRANCH 3861639
ATOM   1639  O2' C   B  40      -6.105 -37.032  -9.058  0.00  0.00    +0.000 OA
ATOM   1640  H   C   B  40      -6.587 -37.822  -9.349  0.00  0.00    +0.000 HD
ENDBRANCH 3861639
BRANCH 3881641
ATOM   1641  OP1 U   B  41      -9.273 -33.540 -10.843  0.00  0.00    +0.000 OA
ATOM   1642  H   U   B  41      -9.393 -33.631 -11.801  0.00  0.00    +0.000 HD
ENDBRANCH 3881641
BRANCH 3781643
ATOM   1643  OP1 C   B  40      -4.532 -37.487 -15.353  0.00  0.00    +0.000 OA
ATOM   1644  H   C   B  40      -4.166 -37.970 -16.110  0.00  0.00    +0.000 HD
ENDBRANCH 3781643
BRANCH 3981645
ATOM   1645  OP1 U   B  42     -10.318 -29.780  -6.591  0.00  0.00    +0.000 OA
ATOM   1646  H   U   B  42     -10.978 -30.269  -7.108  0.00  0.00    +0.000 HD
ENDBRANCH 3981645
BRANCH 4061647
ATOM   1647  O2' U   B  42      -4.866 -26.877  -2.808  0.00  0.00    +0.000 OA
ATOM   1648  H   U   B  42      -5.459 -27.371  -2.221  0.00  0.00    +0.000 HD
ENDBRANCH 4061647
BRANCH 4081649
ATOM   1649  OP1 A   B  43      -8.033 -24.040  -5.070  0.00  0.00    +0.000 OA
ATOM   1650  H   A   B  43      -8.274 -23.432  -5.786  0.00  0.00    +0.000 HD
ENDBRANCH 4081649
BRANCH 4161651
ATOM   1651  O2' A   B  43      -1.147 -23.757  -7.575  0.00  0.00    +0.000 OA
ATOM   1652  H   A   B  43      -1.189 -23.713  -6.607  0.00  0.00    +0.000 HD
ENDBRANCH 4161651
BRANCH 4181653
ATOM   1653  OP1 C   B  44      -3.846 -20.044  -8.819  0.00  0.00    +0.000 OA
ATOM   1654  H   C   B  44      -4.249 -19.547  -9.548  0.00  0.00    +0.000 HD
ENDBRANCH 4181653
BRANCH 4261655
ATOM   1655  O2' C   B  44      -0.644 -23.730 -14.252  0.00  0.00    +0.000 OA
ATOM   1656  H   C   B  44       0.006 -23.593 -13.545  0.00  0.00    +0.000 HD
ENDBRANCH 4261655
BRANCH 4281657
ATOM   1657  OP2 U   B  45      -3.952 -20.191 -13.817  0.00  0.00    +0.000 OA
ATOM   1658  H   U   B  45      -4.545 -19.624 -14.335  0.00  0.00    +0.000 HD
ENDBRANCH 4281657
BRANCH 4361659
ATOM   1659  O2' U   B  45      -3.256 -22.484 -20.802  0.00  0.00    +0.000 OA
ATOM   1660  H   U   B  45      -2.389 -22.821 -20.527  0.00  0.00    +0.000 HD
ENDBRANCH 4361659
BRANCH 4381661
ATOM   1661  OP2 U   B  46      -3.754 -18.271 -18.265  0.00  0.00    +0.000 OA
ATOM   1662  H   U   B  46      -4.149 -17.386 -18.300  0.00  0.00    +0.000 HD
ENDBRANCH 4381661
BRANCH 4461663
ATOM   1663  O2' U   B  46      -8.324 -20.096 -23.821  0.00  0.00    +0.000 OA
ATOM   1664  H   U   B  46      -7.530 -20.533 -24.166  0.00  0.00    +0.000 HD
ENDBRANCH 4461663
BRANCH 4481665
ATOM   1665  OP2 U   B  47      -7.161 -15.891 -21.864  0.00  0.00    +0.000 OA
ATOM   1666  H   U   B  47      -6.210 -15.715 -21.789  0.00  0.00    +0.000 HD
ENDBRANCH 4481665
BRANCH 3281667
ATOM   1667  OP2 A   B  35     -18.638 -24.831 -13.128  0.00  0.00    +0.000 OA
ATOM   1668  H   A   B  35     -18.164 -25.677 -13.139  0.00  0.00    +0.000 HD
ENDBRANCH 3281667
BRANCH 2261669
ATOM   1669  O2' U   B  24     -17.645   7.894 -23.878  0.00  0.00    +0.000 OA
ATOM   1670  H   U   B  24     -18.506   8.341 -23.852  0.00  0.00    +0.000 HD
ENDBRANCH 2261669
BRANCH 2281671
ATOM   1671  OP2 U   B  25     -17.695   4.154 -20.834  0.00  0.00    +0.000 OA
ATOM   1672  H   U   B  25     -17.308   3.272 -20.717  0.00  0.00    +0.000 HD
ENDBRANCH 2281671
BRANCH 2361673
ATOM   1673  O2' U   B  25     -12.915   4.730 -26.499  0.00  0.00    +0.000 OA
ATOM   1674  H   U   B  25     -13.662   5.182 -26.921  0.00  0.00    +0.000 HD
ENDBRANCH 2361673
BRANCH 2381675
ATOM   1675  OP2 U   B  26     -14.591   1.084 -23.800  0.00  0.00    +0.000 OA
ATOM   1676  H   U   B  26     -15.557   1.064 -23.712  0.00  0.00    +0.000 HD
ENDBRANCH 2381675
BRANCH 2461677
ATOM   1677  O2' U   B  26      -7.586   1.526 -26.253  0.00  0.00    +0.000 OA
ATOM   1678  H   U   B  26      -8.020   1.948 -27.011  0.00  0.00    +0.000 HD
ENDBRANCH 2461677
BRANCH 2481679
ATOM   1679  OP2 U   B  27     -10.469  -2.086 -24.668  0.00  0.00    +0.000 OA
ATOM   1680  H   U   B  27     -11.316  -2.145 -25.137  0.00  0.00    +0.000 HD
ENDBRANCH 2481679
BRANCH 2561681
ATOM   1681  O2' U   B  27      -3.278  -1.321 -22.800  0.00  0.00    +0.000 OA
ATOM   1682  H   U   B  27      -3.241  -0.910 -23.678  0.00  0.00    +0.000 HD
ENDBRANCH 2561681
BRANCH 2581683
ATOM   1683  OP2 U   B  28      -6.178  -5.141 -22.866  0.00  0.00    +0.000 OA
ATOM   1684  H   U   B  28      -6.703  -5.250 -23.674  0.00  0.00    +0.000 HD
ENDBRANCH 2581683
BRANCH 2661685
ATOM   1685  O2' U   B  28      -0.799  -4.161 -17.825  0.00  0.00    +0.000 OA
ATOM   1686  H   U   B  28      -0.341  -3.737 -18.567  0.00  0.00    +0.000 HD
ENDBRANCH 2661685
BRANCH 2681687
ATOM   1687  OP1 A   B  29      -0.859  -8.760 -19.443  0.00  0.00    +0.000 OA
ATOM   1688  H   A   B  29      -0.805  -8.824 -20.409  0.00  0.00    +0.000 HD
ENDBRANCH 2681687
BRANCH 2761689
ATOM   1689  O2' A   B  29      -1.629  -7.122 -12.371  0.00  0.00    +0.000 OA
ATOM   1690  H   A   B  29      -0.817  -6.738 -12.737  0.00  0.00    +0.000 HD
ENDBRANCH 2761689
BRANCH 2781691
ATOM   1691  OP1 A   B  30      -1.016 -11.749 -13.588  0.00  0.00    +0.000 OA
ATOM   1692  H   A   B  30      -0.439 -11.883 -14.356  0.00  0.00    +0.000 HD
ENDBRANCH 2781691
BRANCH 3361693
ATOM   1693  O2' A   B  35     -17.424 -24.045 -20.547  0.00  0.00    +0.000 OA
ATOM   1694  H   A   B  35     -18.355 -23.790 -20.450  0.00  0.00    +0.000 HD
ENDBRANCH 3361693
BRANCH 3261695
ATOM   1695  O2' A   B  34     -20.601 -21.429 -16.124  0.00  0.00    +0.000 OA
ATOM   1696  H   A   B  34     -21.327 -21.017 -15.629  0.00  0.00    +0.000 HD
ENDBRANCH 3261695
BRANCH 2861697
ATOM   1697  O2' A   B  30      -5.465  -9.509  -8.223  0.00  0.00    +0.000 OA
ATOM   1698  H   A   B  30      -4.577  -9.130  -8.128  0.00  0.00    +0.000 HD
ENDBRANCH 2861697
BRANCH 2881699
ATOM   1699  OP1 A   B  31      -4.346 -14.185  -8.374  0.00  0.00    +0.000 OA
ATOM   1700  H   A   B  31      -3.482 -14.391  -8.764  0.00  0.00    +0.000 HD
ENDBRANCH 2881699
BRANCH 2961701
ATOM   1701  O2' A   B  31     -10.783 -11.736  -6.015  0.00  0.00    +0.000 OA
ATOM   1702  H   A   B  31     -10.061 -11.317  -5.521  0.00  0.00    +0.000 HD
ENDBRANCH 2961701
BRANCH 3081703
ATOM   1703  OP1 U   B  33     -15.554 -18.861  -5.446  0.00  0.00    +0.000 OA
ATOM   1704  H   U   B  33     -15.630 -19.792  -5.709  0.00  0.00    +0.000 HD
ENDBRANCH 3081703
BRANCH 3161705
ATOM   1705  O2' U   B  33     -20.141 -17.691 -10.975  0.00  0.00    +0.000 OA
ATOM   1706  H   U   B  33     -20.404 -17.178 -10.195  0.00  0.00    +0.000 HD
ENDBRANCH 3161705
BRANCH 3061707
ATOM   1707  O2' A   B  32     -16.415 -14.326  -6.943  0.00  0.00    +0.000 OA
ATOM   1708  H   A   B  32     -16.101 -13.847  -6.160  0.00  0.00    +0.000 HD
ENDBRANCH 3061707
BRANCH 3181709
ATOM   1709  OP1 A   B  34     -19.775 -22.109  -8.918  0.00  0.00    +0.000 OA
ATOM   1710  H   A   B  34     -19.568 -23.036  -9.113  0.00  0.00    +0.000 HD
ENDBRANCH 3181709
BRANCH 2981711
ATOM   1711  OP1 A   B  32      -9.626 -16.369  -5.307  0.00  0.00    +0.000 OA
ATOM   1712  H   A   B  32      -9.956 -17.263  -5.490  0.00  0.00    +0.000 HD
ENDBRANCH 2981711
BRANCH 7211713
ATOM   1713  O3' C   B  72      -0.139  25.492   6.001  0.00  0.00    +0.000 OA
BRANCH17131714
ATOM   1714  P   U   B  73       0.074  25.203   7.486  0.00  0.00    +0.000 P 
ATOM   1715  OP1 U   B  73      -0.703  23.995   7.849  0.00  0.00    +0.000 OA
BRANCH17141716
ATOM   1716  OP2 U   B  73      -0.029  26.417   8.291  0.00  0.00    +0.000 OA
ATOM   1717  H   U   B  73       0.542  27.104   7.914  0.00  0.00    +0.000 HD
ENDBRANCH17141716
BRANCH17141718
ATOM   1718  O5' U   B  73       1.610  24.798   7.390  0.00  0.00    +0.000 OA
BRANCH17181719
ATOM   1719  C5' U   B  73       2.574  25.420   8.185  0.00  0.00    +0.000 C 
BRANCH17191720
ATOM   1720  C4' U   B  73       3.056  24.427   9.215  0.00  0.00    +0.000 C 
ATOM   1721  O4' U   B  73       3.648  23.297   8.544  0.00  0.00    +0.000 OA
ATOM   1722  C3' U   B  73       4.150  24.933  10.143  0.00  0.00    +0.000 C 
ATOM   1723  C2' U   B  73       4.793  23.627  10.591  0.00  0.00    +0.000 C 
ATOM   1724  C1' U   B  73       4.715  22.798   9.305  0.00  0.00    +0.000 C 
BRANCH17241725
ATOM   1725  N1  U   B  73       5.952  22.916   8.504  0.00  0.00    +0.000 N 
ATOM   1726  C2  U   B  73       6.846  21.875   8.599  0.00  0.00    +0.000 A 
ATOM   1727  O2  U   B  73       6.649  20.891   9.284  0.00  0.00    +0.000 OA
ATOM   1728  N3  U   B  73       7.986  22.027   7.850  0.00  0.00    +0.000 N 
ATOM   1729  C4  U   B  73       8.311  23.092   7.043  0.00  0.00    +0.000 A 
ATOM   1730  O4  U   B  73       9.374  23.083   6.439  0.00  0.00    +0.000 OA
ATOM   1731  C5  U   B  73       7.336  24.128   7.008  0.00  0.00    +0.000 A 
ATOM   1732  C6  U   B  73       6.216  24.012   7.721  0.00  0.00    +0.000 A 
ATOM   1733  H   U   B  73       8.642  21.294   7.895  0.00  0.00    +0.000 HD
ENDBRANCH17241725
BRANCH17231734
ATOM   1734  O2' U   B  73       4.017  22.980  11.591  0.00  0.00    +0.000 OA
ATOM   1735  H   U   B  73       3.117  22.837  11.260  0.00  0.00    +0.000 HD
ENDBRANCH17231734
BRANCH17221736
ATOM   1736  O3' U   B  73       3.642  25.715  11.212  0.00  0.00    +0.000 OA
BRANCH17361737
ATOM   1737  P   C   B  74       4.325  27.097  11.560  0.00  0.00    +0.000 P 
ATOM   1738  OP2 C   B  74       4.545  27.885  10.321  0.00  0.00    +0.000 OA
BRANCH17371739
ATOM   1739  OP1 C   B  74       3.563  27.680  12.694  0.00  0.00    +0.000 OA
ATOM   1740  H   C   B  74       2.691  27.970  12.383  0.00  0.00    +0.000 HD
ENDBRANCH17371739
BRANCH17371741
ATOM   1741  O5' C   B  74       5.762  26.619  12.070  0.00  0.00    +0.000 OA
BRANCH17411742
ATOM   1742  C5' C   B  74       5.860  25.606  13.040  0.00  0.00    +0.000 C 
BRANCH17421743
ATOM   1743  C4' C   B  74       7.170  25.679  13.773  0.00  0.00    +0.000 C 
ATOM   1744  O4' C   B  74       7.499  27.061  14.032  0.00  0.00    +0.000 OA
ATOM   1745  C3' C   B  74       7.182  25.017  15.132  0.00  0.00    +0.000 C 
ATOM   1746  C2' C   B  74       8.247  25.780  15.902  0.00  0.00    +0.000 C 
ATOM   1747  C1' C   B  74       8.199  27.168  15.243  0.00  0.00    +0.000 C 
BRANCH17471748
ATOM   1748  N1  C   B  74       7.567  28.218  16.066  0.00  0.00    +0.000 N 
ATOM   1749  C2  C   B  74       8.167  28.601  17.268  0.00  0.00    +0.000 A 
ATOM   1750  O2  C   B  74       9.203  28.036  17.642  0.00  0.00    +0.000 OA
ATOM   1751  N3  C   B  74       7.599  29.580  18.005  0.00  0.00    +0.000 NA
ATOM   1752  C4  C   B  74       6.485  30.179  17.581  0.00  0.00    +0.000 A 
ATOM   1753  N4  C   B  74       5.968  31.139  18.338  0.00  0.00    +0.000 N 
ATOM   1754  C5  C   B  74       5.862  29.822  16.358  0.00  0.00    +0.000 A 
ATOM   1755  C6  C   B  74       6.434  28.847  15.635  0.00  0.00    +0.000 A 
ATOM   1756  H   C   B  74       5.146  31.601  18.054  0.00  0.00    +0.000 HD
ATOM   1757  H   C   B  74       6.406  31.389  19.184  0.00  0.00    +0.000 HD
ENDBRANCH17471748
BRANCH17461758
ATOM   1758  O2' C   B  74       9.528  25.226  15.706  0.00  0.00    +0.000 OA
ATOM   1759  H   C   B  74       9.732  25.211  14.758  0.00  0.00    +0.000 HD
ENDBRANCH17461758
BRANCH17451760
ATOM   1760  O3' C   B  74       7.503  23.638  15.021  0.00  0.00    +0.000 OA
BRANCH17601761
ATOM   1761  P   C   B  75       6.494  22.507  15.539  0.00  0.00    +0.000 P 
ATOM   1762  OP1 C   B  75       5.146  23.085  15.692  0.00  0.00    +0.000 OA
BRANCH17611763
ATOM   1763  OP2 C   B  75       7.116  21.793  16.669  0.00  0.00    +0.000 OA
ATOM   1764  H   C   B  75       7.995  21.477  16.407  0.00  0.00    +0.000 HD
ENDBRANCH17611763
BRANCH17611765
ATOM   1765  O5' C   B  75       6.486  21.514  14.282  0.00  0.00    +0.000 OA
BRANCH17651766
ATOM   1766  C5' C   B  75       7.552  20.596  14.060  0.00  0.00    +0.000 C 
BRANCH17661767
ATOM   1767  C4' C   B  75       7.094  19.185  14.320  0.00  0.00    +0.000 C 
ATOM   1768  O4' C   B  75       5.811  18.961  13.697  0.00  0.00    +0.000 OA
ATOM   1769  C3' C   B  75       7.977  18.076  13.768  0.00  0.00    +0.000 C 
ATOM   1770  C2' C   B  75       7.010  16.907  13.638  0.00  0.00    +0.000 C 
ATOM   1771  C1' C   B  75       5.707  17.624  13.255  0.00  0.00    +0.000 C 
BRANCH17711772
ATOM   1772  N1  C   B  75       5.442  17.614  11.800  0.00  0.00    +0.000 N 
ATOM   1773  C2  C   B  75       4.974  16.436  11.206  0.00  0.00    +0.000 A 
ATOM   1774  O2  C   B  75       4.803  15.425  11.902  0.00  0.00    +0.000 OA
ATOM   1775  N3  C   B  75       4.714  16.428   9.876  0.00  0.00    +0.000 NA
ATOM   1776  C4  C   B  75       4.910  17.533   9.155  0.00  0.00    +0.000 A 
ATOM   1777  N4  C   B  75       4.648  17.471   7.852  0.00  0.00    +0.000 N 
ATOM   1778  C5  C   B  75       5.379  18.743   9.734  0.00  0.00    +0.000 A 
ATOM   1779  C6  C   B  75       5.629  18.740  11.050  0.00  0.00    +0.000 A 
ATOM   1780  H   C   B  75       4.780  18.265   7.285  0.00  0.00    +0.000 HD
ATOM   1781  H   C   B  75       4.322  16.631   7.455  0.00  0.00    +0.000 HD
ENDBRANCH17711772
BRANCH17701782
ATOM   1782  O2' C   B  75       6.821  16.260  14.888  0.00  0.00    +0.000 OA
ATOM   1783  H   C   B  75       6.517  16.907  15.544  0.00  0.00    +0.000 HD
ENDBRANCH17701782
BRANCH17691784
ATOM   1784  O3' C   B  75       9.075  17.787  14.627  0.00  0.00    +0.000 OA
BRANCH17841785
ATOM   1785  P   A   B  76      10.507  17.432  14.028  0.00  0.00    +0.000 P 
ATOM   1786  OP2 A   B  76      10.835  18.475  13.022  0.00  0.00    +0.000 OA
BRANCH17851787
ATOM   1787  OP1 A   B  76      11.415  17.192  15.175  0.00  0.00    +0.000 OA
ATOM   1788  H   A   B  76      12.301  16.972  14.846  0.00  0.00    +0.000 HD
ENDBRANCH17851787
BRANCH17851789
ATOM   1789  O5' A   B  76      10.301  16.049  13.261  0.00  0.00    +0.000 OA
BRANCH17891790
ATOM   1790  C5' A   B  76      10.069  14.842  13.974  0.00  0.00    +0.000 C 
BRANCH17901791
ATOM   1791  C4' A   B  76       9.678  13.722  13.040  0.00  0.00    +0.000 C 
ATOM   1792  O4' A   B  76       8.483  14.099  12.312  0.00  0.00    +0.000 OA
ATOM   1793  C3' A   B  76      10.688  13.389  11.953  0.00  0.00    +0.000 C 
ATOM   1794  C2' A   B  76       9.815  12.760  10.880  0.00  0.00    +0.000 C 
ATOM   1795  C1' A   B  76       8.549  13.612  10.994  0.00  0.00    +0.000 C 
BRANCH17951796
ATOM   1796  N9  A   B  76       8.562  14.761  10.076  0.00  0.00    +0.000 N 
ATOM   1797  C8  A   B  76       8.705  16.087  10.403  0.00  0.00    +0.000 A 
ATOM   1798  N7  A   B  76       8.688  16.889   9.365  0.00  0.00    +0.000 NA
ATOM   1799  C5  A   B  76       8.524  16.035   8.286  0.00  0.00    +0.000 A 
ATOM   1800  C6  A   B  76       8.429  16.264   6.903  0.00  0.00    +0.000 A 
ATOM   1801  N1  A   B  76       8.269  15.185   6.098  0.00  0.00    +0.000 NA
ATOM   1802  C2  A   B  76       8.206  13.966   6.651  0.00  0.00    +0.000 A 
ATOM   1803  N3  A   B  76       8.284  13.631   7.935  0.00  0.00    +0.000 NA
ATOM   1804  C4  A   B  76       8.444  14.724   8.707  0.00  0.00    +0.000 A 
BRANCH18001805
ATOM   1805  N6  A   B  76       8.489  17.479   6.352  0.00  0.00    +0.000 N 
ATOM   1806  H   A   B  76       8.417  17.581   5.375  0.00  0.00    +0.000 HD
ATOM   1807  H   A   B  76       8.606  18.273   6.922  0.00  0.00    +0.000 HD
ENDBRANCH18001805
ENDBRANCH17951796
BRANCH17941808
ATOM   1808  O2' A   B  76       9.500  11.419  11.184  0.00  0.00    +0.000 OA
ATOM   1809  H   A   B  76       9.076  11.376  12.055  0.00  0.00    +0.000 HD
ENDBRANCH17941808
BRANCH17931810
ATOM   1810  O3' A   B  76      11.724  12.533  12.414  0.00  0.00    +0.000 OA
ATOM   1811  H   A   B  76      11.336  11.716  12.764  0.00  0.00    +0.000 HD
ENDBRANCH17931810
ENDBRANCH17901791
ENDBRANCH17891790
ENDBRANCH17851789
ENDBRANCH17841785
ENDBRANCH17691784
ENDBRANCH17661767
ENDBRANCH17651766
ENDBRANCH17611765
ENDBRANCH17601761
ENDBRANCH17451760
ENDBRANCH17421743
ENDBRANCH17411742
ENDBRANCH17371741
ENDBRANCH17361737
ENDBRANCH17221736
ENDBRANCH17191720
ENDBRANCH17181719
ENDBRANCH17141718
ENDBRANCH17131714
ENDBRANCH 7211713
BRANCH   11812
ATOM   1812  C5' A   B   3     -12.028  30.522 -12.543  0.00  0.00    +0.000 C 
BRANCH18121813
ATOM   1813  O5' A   B   3     -12.674  30.646 -13.801  0.00  0.00    +0.000 OA
BRANCH18131814
ATOM   1814  P   A   B   3     -11.864  30.451 -15.159  0.00  0.00    +0.000 P 
ATOM   1815  OP2 A   B   3     -12.808  30.658 -16.287  0.00  0.00    +0.000 OA
BRANCH18141816
ATOM   1816  OP1 A   B   3     -11.094  29.182 -15.062  0.00  0.00    +0.000 OA
ATOM   1817  H   A   B   3     -10.593  29.045 -15.881  0.00  0.00    +0.000 HD
ENDBRANCH18141816
BRANCH18141818
ATOM   1818  O3' U   B   2     -10.796  31.658 -15.134  0.00  0.00    +0.000 OA
BRANCH18181821
ATOM   1819  C4' U   B   2     -10.172  33.805 -16.132  0.00  0.00    +0.000 C 
ATOM   1820  O4' U   B   2     -10.572  35.177 -15.881  0.00  0.00    +0.000 OA
ATOM   1821  C3' U   B   2     -11.234  32.976 -15.437  0.00  0.00    +0.000 C 
ATOM   1822  C2' U   B   2     -11.547  33.812 -14.202  0.00  0.00    +0.000 C 
ATOM   1823  C1' U   B   2     -11.455  35.226 -14.778  0.00  0.00    +0.000 C 
BRANCH18231824
ATOM   1824  N1  U   B   2     -12.767  35.716 -15.258  0.00  0.00    +0.000 N 
ATOM   1825  C2  U   B   2     -13.707  36.090 -14.311  0.00  0.00    +0.000 A 
ATOM   1826  O2  U   B   2     -13.506  36.032 -13.109  0.00  0.00    +0.000 OA
ATOM   1827  N3  U   B   2     -14.901  36.539 -14.825  0.00  0.00    +0.000 N 
ATOM   1828  C4  U   B   2     -15.243  36.647 -16.159  0.00  0.00    +0.000 A 
ATOM   1829  O4  U   B   2     -16.359  37.069 -16.464  0.00  0.00    +0.000 OA
ATOM   1830  C5  U   B   2     -14.221  36.244 -17.073  0.00  0.00    +0.000 A 
ATOM   1831  C6  U   B   2     -13.046  35.804 -16.603  0.00  0.00    +0.000 A 
ATOM   1832  H   U   B   2     -15.585  36.813 -14.172  0.00  0.00    +0.000 HD
ENDBRANCH18231824
BRANCH18221833
ATOM   1833  O2' U   B   2     -10.550  33.659 -13.204  0.00  0.00    +0.000 OA
ATOM   1834  H   U   B   2      -9.683  33.882 -13.577  0.00  0.00    +0.000 HD
ENDBRANCH18221833
BRANCH18191835
ATOM   1835  C5' U   B   2     -10.039  33.579 -17.616  0.00  0.00    +0.000 C 
BRANCH18351836
ATOM   1836  O5' U   B   2     -11.299  33.677 -18.265  0.00  0.00    +0.000 OA
BRANCH18361837
ATOM   1837  P   U   B   2     -11.453  33.377 -19.825  0.00  0.00    +0.000 P 
ATOM   1838  OP2 U   B   2     -12.894  33.497 -20.174  0.00  0.00    +0.000 OA
BRANCH18371839
ATOM   1839  OP1 U   B   2     -10.718  32.123 -20.139  0.00  0.00    +0.000 OA
ATOM   1840  H   U   B   2     -10.802  31.927 -21.085  0.00  0.00    +0.000 HD
ENDBRANCH18371839
BRANCH18371841
ATOM   1841  O3' C   B   1     -10.601  34.583 -20.500  0.00  0.00    +0.000 OA
BRANCH18411844
ATOM   1842  C4' C   B   1     -10.798  36.583 -21.890  0.00  0.00    +0.000 C 
ATOM   1843  O4' C   B   1     -11.047  37.983 -21.596  0.00  0.00    +0.000 OA
ATOM   1844  C3' C   B   1     -11.225  35.859 -20.628  0.00  0.00    +0.000 C 
ATOM   1845  C2' C   B   1     -10.835  36.833 -19.534  0.00  0.00    +0.000 C 
ATOM   1846  C1' C   B   1     -11.152  38.170 -20.204  0.00  0.00    +0.000 C 
BRANCH18461847
ATOM   1847  N1  C   B   1     -12.513  38.658 -19.910  0.00  0.00    +0.000 N 
ATOM   1848  C2  C   B   1     -12.804  39.145 -18.639  0.00  0.00    +0.000 A 
ATOM   1849  O2  C   B   1     -11.909  39.160 -17.777  0.00  0.00    +0.000 OA
ATOM   1850  N3  C   B   1     -14.051  39.593 -18.370  0.00  0.00    +0.000 NA
ATOM   1851  C4  C   B   1     -14.991  39.566 -19.314  0.00  0.00    +0.000 A 
ATOM   1852  N4  C   B   1     -16.203  40.024 -19.004  0.00  0.00    +0.000 N 
ATOM   1853  C5  C   B   1     -14.728  39.077 -20.621  0.00  0.00    +0.000 A 
ATOM   1854  C6  C   B   1     -13.487  38.637 -20.874  0.00  0.00    +0.000 A 
ATOM   1855  H   C   B   1     -16.919  40.018 -19.679  0.00  0.00    +0.000 HD
ATOM   1856  H   C   B   1     -16.382  40.369 -18.100  0.00  0.00    +0.000 HD
ENDBRANCH18461847
BRANCH18451857
ATOM   1857  O2' C   B   1      -9.451  36.766 -19.257  0.00  0.00    +0.000 OA
ATOM   1858  H   C   B   1      -8.950  36.922 -20.073  0.00  0.00    +0.000 HD
ENDBRANCH18451857
BRANCH18421859
ATOM   1859  C5' C   B   1     -11.552  36.200 -23.137  0.00  0.00    +0.000 C 
BRANCH18591860
ATOM   1860  O5' C   B   1     -12.948  36.390 -22.972  0.00  0.00    +0.000 OA
BRANCH18601862
ATOM   1861  OP3 C   B   1     -13.775  37.164 -25.235  0.00  0.00    +0.000 OA
ATOM   1862  P   C   B   1     -14.004  36.285 -24.178  0.00  0.00    +0.000 P 
BRANCH18621863
ATOM   1863  OP1 C   B   1     -14.008  34.879 -24.614  0.00  0.00    +0.000 OA
ATOM   1864  H   C   B   1     -14.636  34.769 -25.345  0.00  0.00    +0.000 HD
ENDBRANCH18621863
BRANCH18621865
ATOM   1865  OP2 C   B   1     -15.294  36.785 -23.601  0.00  0.00    +0.000 OA
ATOM   1866  H   C   B   1     -15.986  36.751 -24.279  0.00  0.00    +0.000 HD
ENDBRANCH18621865
ENDBRANCH18601862
ENDBRANCH18591860
ENDBRANCH18421859
ENDBRANCH18411844
ENDBRANCH18371841
ENDBRANCH18361837
ENDBRANCH18351836
ENDBRANCH18191835
ENDBRANCH18181821
ENDBRANCH18141818
ENDBRANCH18131814
ENDBRANCH18121813
ENDBRANCH   11812
TORSDOF 280
