REMARK  Name = /storage/kiran-stuff/aaRS/phase2/energy_scoring/vina_182jobs/shallow_domain_thr_THR/ligand.h.pdb
REMARK  6 active torsions:
REMARK  status: ('A' for Active; 'I' for Inactive)
REMARK    1  A    between atoms: N_1  and  CA_2
REMARK    2  A    between atoms: CA_2  and  C_3
REMARK    3  A    between atoms: CA_2  and  CB_5
REMARK    4  A    between atoms: C_3  and  O_4
REMARK    5  A    between atoms: CB_5  and  OG1_6
REMARK    6  A    between atoms: CB_5  and  CG2_7
REMARK                            x       y       z     vdW  Elec       q    Type
REMARK                         _______ _______ _______ _____ _____    ______ ____
ROOT
ATOM      1  CA  THR C   1       8.992  10.104   5.134  0.00  0.00    +0.000 C 
ENDROOT
BRANCH   1   2
ATOM      2  N   THR C   1       7.873   9.299   5.615  0.00  0.00    +0.000 NA
ATOM      3  H   THR C   1       7.103   9.353   4.948  0.00  0.00    +0.000 HD
ATOM      4  H   THR C   1       7.564   9.653   6.520  0.00  0.00    +0.000 HD
ENDBRANCH   1   2
BRANCH   1   5
ATOM      5  C   THR C   1       9.472   9.608   3.794  0.00  0.00    +0.000 C 
ATOM      6  OXT THR C   1      10.038  10.399   3.032  0.00  0.00    +0.000 OA
BRANCH   5   7
ATOM      7  O   THR C   1       9.347   8.429   3.495  0.00  0.00    +0.000 OA
ATOM      8  H   THR C   1       8.916   7.840   4.082  0.00  0.00    +0.000 HD
ENDBRANCH   5   7
ENDBRANCH   1   5
BRANCH   1   9
ATOM      9  CB  THR C   1      10.169  10.051   6.105  0.00  0.00    +0.000 C 
ATOM     10  CG2 THR C   1      11.152  11.117   5.789  0.00  0.00    +0.000 C 
BRANCH   9  11
ATOM     11  OG1 THR C   1       9.710  10.212   7.446  0.00  0.00    +0.000 OA
ATOM     12  H   THR C   1       9.280  11.076   7.539  0.00  0.00    +0.000 HD
ENDBRANCH   9  11
ENDBRANCH   1   9
TORSDOF 5
