REMARK  Name = /storage/kiran-stuff/aaRS/phase2/energy_scoring/vina_182jobs/modern_human_full_pro_PRO/ligand.h.pdb
REMARK  2 active torsions:
REMARK  status: ('A' for Active; 'I' for Inactive)
REMARK    1  A    between atoms: CA_2  and  C_3
REMARK    2  A    between atoms: C_3  and  OXT_8
REMARK                            x       y       z     vdW  Elec       q    Type
REMARK                         _______ _______ _______ _____ _____    ______ ____
ROOT
ATOM      1  N   PRO B   1      -7.146  -1.025  18.694  0.00  0.00    +0.000 NA
ATOM      2  CA  PRO B   1      -6.516  -2.254  19.179  0.00  0.00    +0.000 C 
ATOM      3  CB  PRO B   1      -6.432  -3.121  17.948  0.00  0.00    +0.000 C 
ATOM      4  CG  PRO B   1      -7.645  -2.770  17.197  0.00  0.00    +0.000 C 
ATOM      5  CD  PRO B   1      -7.929  -1.346  17.525  0.00  0.00    +0.000 C 
ATOM      6  H   PRO B   1      -7.752  -0.640  19.418  0.00  0.00    +0.000 HD
ENDROOT
BRANCH   2   7
ATOM      7  C   PRO B   1      -5.156  -2.035  19.785  0.00  0.00    +0.000 C 
ATOM      8  O   PRO B   1      -4.673  -0.905  19.818  0.00  0.00    +0.000 OA
BRANCH   7   9
ATOM      9  OXT PRO B   1      -4.555  -3.037  20.197  0.00  0.00    +0.000 OA
ATOM     10  H   PRO B   1      -4.963  -3.880  20.152  0.00  0.00    +0.000 HD
ENDBRANCH   7   9
ENDBRANCH   2   7
TORSDOF 2
