REMARK  Name = /storage/kiran-stuff/aaRS/phase2/energy_scoring/vina_182jobs/modern_human_full_pro_PRO/ligand.h.pdb
REMARK  2 active torsions:
REMARK  status: ('A' for Active; 'I' for Inactive)
REMARK    1  A    between atoms: CA_2  and  C_3
REMARK    2  A    between atoms: C_3  and  OXT_8
REMARK                            x       y       z     vdW  Elec       q    Type
REMARK                         _______ _______ _______ _____ _____    ______ ____
ROOT
ATOM      1  N   PRO B   1      -7.216  -0.832  19.525  0.00  0.00    +0.000 NA
ATOM      2  CA  PRO B   1      -5.980  -1.605  19.653  0.00  0.00    +0.000 C 
ATOM      3  CB  PRO B   1      -5.900  -2.367  18.354  0.00  0.00    +0.000 C 
ATOM      4  CG  PRO B   1      -7.306  -2.650  18.035  0.00  0.00    +0.000 C 
ATOM      5  CD  PRO B   1      -8.088  -1.518  18.602  0.00  0.00    +0.000 C 
ATOM      6  H   PRO B   1      -7.670  -0.755  20.435  0.00  0.00    +0.000 HD
ENDROOT
BRANCH   2   7
ATOM      7  C   PRO B   1      -4.756  -0.754  19.861  0.00  0.00    +0.000 C 
ATOM      8  O   PRO B   1      -4.773   0.435  19.546  0.00  0.00    +0.000 OA
BRANCH   7   9
ATOM      9  OXT PRO B   1      -3.750  -1.316  20.316  0.00  0.00    +0.000 OA
ATOM     10  H   PRO B   1      -3.783  -2.225  20.543  0.00  0.00    +0.000 HD
ENDBRANCH   7   9
ENDBRANCH   2   7
TORSDOF 2
