REMARK  Name = /storage/kiran-stuff/aaRS/phase2/energy_scoring/vina_182jobs/anc_prors_edit_GLY_GLY/ligand.h.pdb
REMARK  3 active torsions:
REMARK  status: ('A' for Active; 'I' for Inactive)
REMARK    1  A    between atoms: N_1  and  CA_2
REMARK    2  A    between atoms: CA_2  and  C_3
REMARK    3  A    between atoms: C_3  and  OXT_5
REMARK                            x       y       z     vdW  Elec       q    Type
REMARK                         _______ _______ _______ _____ _____    ______ ____
ROOT
ATOM      1  CA  GLY B   1      16.630  10.546  -7.846  0.00  0.00    +0.000 C 
ENDROOT
BRANCH   1   2
ATOM      2  N   GLY B   1      15.987  10.248  -9.131  0.00  0.00    +0.000 NA
ATOM      3  H   GLY B   1      16.230  10.972  -9.808  0.00  0.00    +0.000 HD
ATOM      4  H   GLY B   1      14.975  10.223  -9.008  0.00  0.00    +0.000 HD
ENDBRANCH   1   2
BRANCH   1   5
ATOM      5  C   GLY B   1      16.304   9.503  -6.801  0.00  0.00    +0.000 C 
ATOM      6  O   GLY B   1      17.161   8.675  -6.423  0.00  0.00    +0.000 OA
BRANCH   5   7
ATOM      7  OXT GLY B   1      15.152   9.433  -6.306  0.00  0.00    +0.000 OA
ATOM      8  H   GLY B   1      14.491  10.040  -6.572  0.00  0.00    +0.000 HD
ENDBRANCH   5   7
ENDBRANCH   1   5
TORSDOF 3
