REMARK  Name = /storage/kiran-stuff/aaRS/phase2/energy_scoring/vina_182jobs/anc_thrrs_cat_zn_THR_THR/ligand.h.pdb
REMARK  6 active torsions:
REMARK  status: ('A' for Active; 'I' for Inactive)
REMARK    1  A    between atoms: N_1  and  CA_2
REMARK    2  A    between atoms: CA_2  and  C_3
REMARK    3  A    between atoms: CA_2  and  CB_5
REMARK    4  A    between atoms: C_3  and  O_4
REMARK    5  A    between atoms: CB_5  and  OG1_6
REMARK    6  A    between atoms: CB_5  and  CG2_7
REMARK                            x       y       z     vdW  Elec       q    Type
REMARK                         _______ _______ _______ _____ _____    ______ ____
ROOT
ATOM      1  CA  THR B   1      -3.635   2.368   4.852  0.00  0.00    +0.000 C 
ENDROOT
BRANCH   1   2
ATOM      2  N   THR B   1      -4.679   2.867   3.946  0.00  0.00    +0.000 NA
ATOM      3  H   THR B   1      -4.264   3.095   3.043  0.00  0.00    +0.000 HD
ATOM      4  H   THR B   1      -5.105   3.703   4.346  0.00  0.00    +0.000 HD
ENDBRANCH   1   2
BRANCH   1   5
ATOM      5  C   THR B   1      -4.229   2.023   6.199  0.00  0.00    +0.000 C 
ATOM      6  OXT THR B   1      -5.210   2.664   6.597  0.00  0.00    +0.000 OA
BRANCH   5   7
ATOM      7  O   THR B   1      -3.703   1.153   6.910  0.00  0.00    +0.000 OA
ATOM      8  H   THR B   1      -2.961   0.676   6.595  0.00  0.00    +0.000 HD
ENDBRANCH   5   7
ENDBRANCH   1   5
BRANCH   1   9
ATOM      9  CB  THR B   1      -2.515   3.382   4.998  0.00  0.00    +0.000 C 
ATOM     10  CG2 THR B   1      -1.208   2.718   5.321  0.00  0.00    +0.000 C 
BRANCH   9  11
ATOM     11  OG1 THR B   1      -2.390   4.116   3.788  0.00  0.00    +0.000 OA
ATOM     12  H   THR B   1      -2.169   3.510   3.064  0.00  0.00    +0.000 HD
ENDBRANCH   9  11
ENDBRANCH   1   9
TORSDOF 5
