REMARK  Name = /storage/kiran-stuff/aaRS/phase2/energy_scoring/vina_182jobs/anc_thrrs_cat_zn_THR_THR/ligand.h.pdb
REMARK  6 active torsions:
REMARK  status: ('A' for Active; 'I' for Inactive)
REMARK    1  A    between atoms: N_1  and  CA_2
REMARK    2  A    between atoms: CA_2  and  C_3
REMARK    3  A    between atoms: CA_2  and  CB_5
REMARK    4  A    between atoms: C_3  and  O_4
REMARK    5  A    between atoms: CB_5  and  OG1_6
REMARK    6  A    between atoms: CB_5  and  CG2_7
REMARK                            x       y       z     vdW  Elec       q    Type
REMARK                         _______ _______ _______ _____ _____    ______ ____
ROOT
ATOM      1  CA  THR B   1      -3.209   1.767   5.551  0.00  0.00    +0.000 C 
ENDROOT
BRANCH   1   2
ATOM      2  N   THR B   1      -4.515   2.260   5.092  0.00  0.00    +0.000 NA
ATOM      3  H   THR B   1      -4.451   2.523   4.109  0.00  0.00    +0.000 HD
ATOM      4  H   THR B   1      -4.785   3.074   5.645  0.00  0.00    +0.000 HD
ENDBRANCH   1   2
BRANCH   1   5
ATOM      5  C   THR B   1      -3.281   1.371   7.009  0.00  0.00    +0.000 C 
ATOM      6  OXT THR B   1      -3.916   2.091   7.789  0.00  0.00    +0.000 OA
BRANCH   5   7
ATOM      7  O   THR B   1      -2.665   0.374   7.417  0.00  0.00    +0.000 OA
ATOM      8  H   THR B   1      -2.189  -0.162   6.814  0.00  0.00    +0.000 HD
ENDBRANCH   5   7
ENDBRANCH   1   5
BRANCH   1   9
ATOM      9  CB  THR B   1      -2.127   2.807   5.326  0.00  0.00    +0.000 C 
ATOM     10  CG2 THR B   1      -0.780   2.171   5.140  0.00  0.00    +0.000 C 
BRANCH   9  11
ATOM     11  OG1 THR B   1      -2.453   3.577   4.177  0.00  0.00    +0.000 OA
ATOM     12  H   THR B   1      -2.494   2.997   3.401  0.00  0.00    +0.000 HD
ENDBRANCH   9  11
ENDBRANCH   1   9
TORSDOF 5
