REMARK  Name = /storage/kiran-stuff/aaRS/phase2/energy_scoring/vina_182jobs/anc_prors_cat_SER_SER/ligand.h.pdb
REMARK  5 active torsions:
REMARK  status: ('A' for Active; 'I' for Inactive)
REMARK    1  A    between atoms: N_1  and  CA_2
REMARK    2  A    between atoms: CA_2  and  C_3
REMARK    3  A    between atoms: CA_2  and  CB_5
REMARK    4  A    between atoms: C_3  and  OXT_7
REMARK    5  A    between atoms: CB_5  and  OG_6
REMARK                            x       y       z     vdW  Elec       q    Type
REMARK                         _______ _______ _______ _____ _____    ______ ____
ROOT
ATOM      1  CA  SER B   1       1.386  -0.265  23.179  0.00  0.00    +0.000 C 
ENDROOT
BRANCH   1   2
ATOM      2  N   SER B   1       0.183  -0.096  24.003  0.00  0.00    +0.000 NA
ATOM      3  H   SER B   1      -0.351   0.704  23.664  0.00  0.00    +0.000 HD
ATOM      4  H   SER B   1       0.456   0.063  24.973  0.00  0.00    +0.000 HD
ENDBRANCH   1   2
BRANCH   1   5
ATOM      5  C   SER B   1       1.018  -0.478  21.726  0.00  0.00    +0.000 C 
ATOM      6  O   SER B   1      -0.133  -0.785  21.414  0.00  0.00    +0.000 OA
BRANCH   5   7
ATOM      7  OXT SER B   1       1.894  -0.355  20.852  0.00  0.00    +0.000 OA
ATOM      8  H   SER B   1       2.768  -0.121  21.095  0.00  0.00    +0.000 HD
ENDBRANCH   5   7
ENDBRANCH   1   5
BRANCH   1   9
ATOM      9  CB  SER B   1       2.169  -1.458  23.697  0.00  0.00    +0.000 C 
BRANCH   9  10
ATOM     10  OG  SER B   1       1.840  -2.635  22.978  0.00  0.00    +0.000 OA
ATOM     11  H   SER B   1       0.895  -2.826  23.086  0.00  0.00    +0.000 HD
ENDBRANCH   9  10
ENDBRANCH   1   9
TORSDOF 5
