REMARK  Name = /storage/kiran-stuff/aaRS/phase2/energy_scoring/vina_182jobs/anc_prors_cat_SER_SER/ligand.h.pdb
REMARK  5 active torsions:
REMARK  status: ('A' for Active; 'I' for Inactive)
REMARK    1  A    between atoms: N_1  and  CA_2
REMARK    2  A    between atoms: CA_2  and  C_3
REMARK    3  A    between atoms: CA_2  and  CB_5
REMARK    4  A    between atoms: C_3  and  OXT_7
REMARK    5  A    between atoms: CB_5  and  OG_6
REMARK                            x       y       z     vdW  Elec       q    Type
REMARK                         _______ _______ _______ _____ _____    ______ ____
ROOT
ATOM      1  CA  SER B   1       1.523  -0.285  23.583  0.00  0.00    +0.000 C 
ENDROOT
BRANCH   1   2
ATOM      2  N   SER B   1       0.260   0.448  23.728  0.00  0.00    +0.000 NA
ATOM      3  H   SER B   1       0.201   1.169  23.009  0.00  0.00    +0.000 HD
ATOM      4  H   SER B   1       0.223   0.883  24.650  0.00  0.00    +0.000 HD
ENDBRANCH   1   2
BRANCH   1   5
ATOM      5  C   SER B   1       1.622  -0.923  22.214  0.00  0.00    +0.000 C 
ATOM      6  O   SER B   1       0.669  -0.878  21.436  0.00  0.00    +0.000 OA
BRANCH   5   7
ATOM      7  OXT SER B   1       2.672  -1.506  21.889  0.00  0.00    +0.000 OA
ATOM      8  H   SER B   1       3.394  -1.537  22.485  0.00  0.00    +0.000 HD
ENDBRANCH   5   7
ENDBRANCH   1   5
BRANCH   1   9
ATOM      9  CB  SER B   1       1.594  -1.353  24.660  0.00  0.00    +0.000 C 
BRANCH   9  10
ATOM     10  OG  SER B   1       0.605  -2.348  24.457  0.00  0.00    +0.000 OA
ATOM     11  H   SER B   1      -0.275  -1.942  24.494  0.00  0.00    +0.000 HD
ENDBRANCH   9  10
ENDBRANCH   1   9
TORSDOF 5
