REMARK  Name = /storage/kiran-stuff/aaRS/phase2/energy_scoring/vina_182jobs/modern_thrrs_GLN_GLN/ligand.h.pdb
REMARK  6 active torsions:
REMARK  status: ('A' for Active; 'I' for Inactive)
REMARK    1  A    between atoms: N_1  and  CA_2
REMARK    2  A    between atoms: CA_2  and  C_3
REMARK    3  A    between atoms: CA_2  and  CB_5
REMARK    4  A    between atoms: C_3  and  OXT_10
REMARK    5  A    between atoms: CB_5  and  CG_6
REMARK    6  A    between atoms: CG_6  and  CD_7
REMARK                            x       y       z     vdW  Elec       q    Type
REMARK                         _______ _______ _______ _____ _____    ______ ____
ROOT
ATOM      1  CA  GLN B   1      -2.439  21.256  -2.416  0.00  0.00    +0.000 C 
ENDROOT
BRANCH   1   2
ATOM      2  N   GLN B   1      -3.902  21.234  -2.504  0.00  0.00    +0.000 NA
ATOM      3  H   GLN B   1      -4.251  20.346  -2.143  0.00  0.00    +0.000 HD
ATOM      4  H   GLN B   1      -4.186  21.340  -3.478  0.00  0.00    +0.000 HD
ENDBRANCH   1   2
BRANCH   1   5
ATOM      5  C   GLN B   1      -1.864  22.581  -2.952  0.00  0.00    +0.000 C 
ATOM      6  O   GLN B   1      -2.605  23.443  -3.412  0.00  0.00    +0.000 OA
BRANCH   5   7
ATOM      7  OXT GLN B   1      -0.644  22.777  -2.894  0.00  0.00    +0.000 OA
ATOM      8  H   GLN B   1      -0.080  22.117  -2.542  0.00  0.00    +0.000 HD
ENDBRANCH   5   7
ENDBRANCH   1   5
BRANCH   1   9
ATOM      9  CB  GLN B   1      -1.858  20.068  -3.212  0.00  0.00    +0.000 C 
BRANCH   9  10
ATOM     10  CG  GLN B   1      -2.323  20.019  -4.648  0.00  0.00    +0.000 C 
BRANCH  10  11
ATOM     11  CD  GLN B   1      -2.249  18.638  -5.249  0.00  0.00    +0.000 C 
ATOM     12  OE1 GLN B   1      -2.309  18.535  -6.441  0.00  0.00    +0.000 OA
ATOM     13  NE2 GLN B   1      -2.156  17.577  -4.464  0.00  0.00    +0.000 N 
ATOM     14  H   GLN B   1      -2.108  16.676  -4.858  0.00  0.00    +0.000 HD
ATOM     15  H   GLN B   1      -2.135  17.689  -3.486  0.00  0.00    +0.000 HD
ENDBRANCH  10  11
ENDBRANCH   9  10
ENDBRANCH   1   9
TORSDOF 6
