REMARK  Name = /storage/kiran-stuff/aaRS/phase2/energy_scoring/vina_182jobs/modern_thrrs_GLN_GLN/ligand.h.pdb
REMARK  6 active torsions:
REMARK  status: ('A' for Active; 'I' for Inactive)
REMARK    1  A    between atoms: N_1  and  CA_2
REMARK    2  A    between atoms: CA_2  and  C_3
REMARK    3  A    between atoms: CA_2  and  CB_5
REMARK    4  A    between atoms: C_3  and  OXT_10
REMARK    5  A    between atoms: CB_5  and  CG_6
REMARK    6  A    between atoms: CG_6  and  CD_7
REMARK                            x       y       z     vdW  Elec       q    Type
REMARK                         _______ _______ _______ _____ _____    ______ ____
ROOT
ATOM      1  CA  GLN B   1      -2.248  20.927  -2.430  0.00  0.00    +0.000 C 
ENDROOT
BRANCH   1   2
ATOM      2  N   GLN B   1      -3.660  20.596  -2.638  0.00  0.00    +0.000 NA
ATOM      3  H   GLN B   1      -3.941  19.874  -1.974  0.00  0.00    +0.000 HD
ATOM      4  H   GLN B   1      -3.793  20.254  -3.589  0.00  0.00    +0.000 HD
ENDBRANCH   1   2
BRANCH   1   5
ATOM      5  C   GLN B   1      -1.776  22.017  -3.412  0.00  0.00    +0.000 C 
ATOM      6  O   GLN B   1      -2.541  22.472  -4.255  0.00  0.00    +0.000 OA
BRANCH   5   7
ATOM      7  OXT GLN B   1      -0.618  22.445  -3.327  0.00  0.00    +0.000 OA
ATOM      8  H   GLN B   1      -0.036  22.096  -2.682  0.00  0.00    +0.000 HD
ENDBRANCH   5   7
ENDBRANCH   1   5
BRANCH   1   9
ATOM      9  CB  GLN B   1      -1.391  19.655  -2.601  0.00  0.00    +0.000 C 
BRANCH   9  10
ATOM     10  CG  GLN B   1      -1.792  18.813  -3.788  0.00  0.00    +0.000 C 
BRANCH  10  11
ATOM     11  CD  GLN B   1      -1.196  17.428  -3.762  0.00  0.00    +0.000 C 
ATOM     12  OE1 GLN B   1      -1.351  16.726  -4.720  0.00  0.00    +0.000 OA
ATOM     13  NE2 GLN B   1      -0.554  17.002  -2.686  0.00  0.00    +0.000 N 
ATOM     14  H   GLN B   1      -0.166  16.098  -2.670  0.00  0.00    +0.000 HD
ATOM     15  H   GLN B   1      -0.464  17.591  -1.902  0.00  0.00    +0.000 HD
ENDBRANCH  10  11
ENDBRANCH   9  10
ENDBRANCH   1   9
TORSDOF 6
