REMARK  Name = /storage/kiran-stuff/aaRS/phase2/energy_scoring/vina_182jobs/modern_prors_LYS_LYS/ligand.h.pdb
REMARK  8 active torsions:
REMARK  status: ('A' for Active; 'I' for Inactive)
REMARK    1  A    between atoms: N_1  and  CA_2
REMARK    2  A    between atoms: CA_2  and  C_3
REMARK    3  A    between atoms: CA_2  and  CB_5
REMARK    4  A    between atoms: C_3  and  OXT_10
REMARK    5  A    between atoms: CB_5  and  CG_6
REMARK    6  A    between atoms: CG_6  and  CD_7
REMARK    7  A    between atoms: CD_7  and  CE_8
REMARK    8  A    between atoms: CE_8  and  NZ_9
REMARK                            x       y       z     vdW  Elec       q    Type
REMARK                         _______ _______ _______ _____ _____    ______ ____
ROOT
ATOM      1  CA  LYS B   1     -11.449   6.080   2.291  0.00  0.00    +0.000 C 
ENDROOT
BRANCH   1   2
ATOM      2  N   LYS B   1     -12.753   6.733   2.180  0.00  0.00    +0.000 NA
ATOM      3  H   LYS B   1     -13.442   6.062   1.841  0.00  0.00    +0.000 HD
ATOM      4  H   LYS B   1     -12.688   7.512   1.525  0.00  0.00    +0.000 HD
ENDBRANCH   1   2
BRANCH   1   5
ATOM      5  C   LYS B   1     -10.405   7.078   2.798  0.00  0.00    +0.000 C 
ATOM      6  O   LYS B   1      -9.256   6.672   3.048  0.00  0.00    +0.000 OA
BRANCH   5   7
ATOM      7  OXT LYS B   1     -10.703   8.263   2.944  0.00  0.00    +0.000 OA
ATOM      8  H   LYS B   1     -11.572   8.554   2.752  0.00  0.00    +0.000 HD
ENDBRANCH   5   7
ENDBRANCH   1   5
BRANCH   1   9
ATOM      9  CB  LYS B   1     -11.018   5.561   0.905  0.00  0.00    +0.000 C 
BRANCH   9  10
ATOM     10  CG  LYS B   1     -10.798   6.667  -0.118  0.00  0.00    +0.000 C 
BRANCH  10  11
ATOM     11  CD  LYS B   1     -12.062   6.924  -0.912  0.00  0.00    +0.000 C 
BRANCH  11  12
ATOM     12  CE  LYS B   1     -12.148   8.395  -1.333  0.00  0.00    +0.000 C 
BRANCH  12  13
ATOM     13  NZ  LYS B   1     -12.459   9.229  -0.177  0.00  0.00    +0.000 NA
ATOM     14  H   LYS B   1     -13.355   8.944   0.216  0.00  0.00    +0.000 HD
ATOM     15  H   LYS B   1     -12.509  10.206  -0.466  0.00  0.00    +0.000 HD
ENDBRANCH  12  13
ENDBRANCH  11  12
ENDBRANCH  10  11
ENDBRANCH   9  10
ENDBRANCH   1   9
TORSDOF 8
