REMARK  Name = /storage/kiran-stuff/aaRS/phase2/energy_scoring/vina_182jobs/modern_thrrs_pro_PRO/ligand.h.pdb
REMARK  594 active torsions:
REMARK  status: ('A' for Active; 'I' for Inactive)
REMARK    1  A    between atoms: P_2  and  OP1_3
REMARK    2  A    between atoms: P_2  and  OP2_4
REMARK    3  A    between atoms: P_2  and  O5'_5
REMARK    4  A    between atoms: O5'_5  and  C5'_6
REMARK    5  A    between atoms: C5'_6  and  C4'_7
REMARK    6  A    between atoms: C3'_9  and  O3'_10
REMARK    7  A    between atoms: O3'_10  and  P_22
REMARK    8  A    between atoms: C2'_11  and  O2'_12
REMARK    9  A    between atoms: C1'_13  and  N1_14
REMARK   10  A    between atoms: P_22  and  OP1_23
REMARK   11  A    between atoms: P_22  and  O5'_25
REMARK   12  A    between atoms: O5'_25  and  C5'_26
REMARK   13  A    between atoms: C5'_26  and  C4'_27
REMARK   14  A    between atoms: C3'_29  and  O3'_30
REMARK   15  A    between atoms: O3'_30  and  P_42
REMARK   16  A    between atoms: C2'_31  and  O2'_32
REMARK   17  A    between atoms: C1'_33  and  N1_34
REMARK   18  A    between atoms: P_42  and  OP1_43
REMARK   19  A    between atoms: P_42  and  O5'_45
REMARK   20  A    between atoms: O5'_45  and  C5'_46
REMARK   21  A    between atoms: C5'_46  and  C4'_47
REMARK   22  A    between atoms: C3'_49  and  O3'_50
REMARK   23  A    between atoms: O3'_50  and  P_64
REMARK   24  A    between atoms: C2'_51  and  O2'_52
REMARK   25  A    between atoms: C1'_53  and  N9_54
REMARK   26  A    between atoms: C6_58  and  N6_59
REMARK   27  A    between atoms: P_64  and  OP1_65
REMARK   28  A    between atoms: P_64  and  O5'_67
REMARK   29  A    between atoms: O5'_67  and  C5'_68
REMARK   30  A    between atoms: C5'_68  and  C4'_69
REMARK   31  A    between atoms: C3'_71  and  O3'_72
REMARK   32  A    between atoms: O3'_72  and  P_86
REMARK   33  A    between atoms: C2'_73  and  O2'_74
REMARK   34  A    between atoms: C1'_75  and  N9_76
REMARK   35  A    between atoms: C6_80  and  N6_81
REMARK   36  A    between atoms: P_86  and  OP1_87
REMARK   37  A    between atoms: P_86  and  O5'_89
REMARK   38  A    between atoms: O5'_89  and  C5'_90
REMARK   39  A    between atoms: C5'_90  and  C4'_91
REMARK   40  A    between atoms: C3'_93  and  O3'_94
REMARK   41  A    between atoms: O3'_94  and  P_106
REMARK   42  A    between atoms: C2'_95  and  O2'_96
REMARK   43  A    between atoms: C1'_97  and  N1_98
REMARK   44  A    between atoms: P_106  and  OP1_107
REMARK   45  A    between atoms: P_106  and  O5'_109
REMARK   46  A    between atoms: O5'_109  and  C5'_110
REMARK   47  A    between atoms: C5'_110  and  C4'_111
REMARK   48  A    between atoms: C3'_113  and  O3'_114
REMARK   49  A    between atoms: O3'_114  and  P_128
REMARK   50  A    between atoms: C2'_115  and  O2'_116
REMARK   51  A    between atoms: C1'_117  and  N9_118
REMARK   52  A    between atoms: C6_122  and  N6_123
REMARK   53  A    between atoms: P_128  and  OP2_130
REMARK   54  A    between atoms: P_128  and  O5'_131
REMARK   55  A    between atoms: O5'_131  and  C5'_132
REMARK   56  A    between atoms: C5'_132  and  C4'_133
REMARK   57  A    between atoms: C3'_135  and  O3'_136
REMARK   58  A    between atoms: O3'_136  and  P_148
REMARK   59  A    between atoms: C2'_137  and  O2'_138
REMARK   60  A    between atoms: C1'_139  and  N1_140
REMARK   61  A    between atoms: P_148  and  OP1_149
REMARK   62  A    between atoms: P_148  and  O5'_151
REMARK   63  A    between atoms: O5'_151  and  C5'_152
REMARK   64  A    between atoms: C5'_152  and  C4'_153
REMARK   65  A    between atoms: C3'_155  and  O3'_156
REMARK   66  A    between atoms: O3'_156  and  P_168
REMARK   67  A    between atoms: C2'_157  and  O2'_158
REMARK   68  A    between atoms: C1'_159  and  N1_160
REMARK   69  A    between atoms: P_168  and  OP2_170
REMARK   70  A    between atoms: P_168  and  O5'_171
REMARK   71  A    between atoms: O5'_171  and  C5'_172
REMARK   72  A    between atoms: C5'_172  and  C4'_173
REMARK   73  A    between atoms: C3'_175  and  O3'_176
REMARK   74  A    between atoms: O3'_176  and  P_190
REMARK   75  A    between atoms: C2'_177  and  O2'_178
REMARK   76  A    between atoms: C1'_179  and  N9_180
REMARK   77  A    between atoms: P_190  and  OP1_191
REMARK   78  A    between atoms: P_190  and  O5'_193
REMARK   79  A    between atoms: O5'_193  and  C5'_194
REMARK   80  A    between atoms: C5'_194  and  C4'_195
REMARK   81  A    between atoms: C3'_197  and  O3'_198
REMARK   82  A    between atoms: O3'_198  and  P_210
REMARK   83  A    between atoms: C2'_199  and  O2'_200
REMARK   84  A    between atoms: C1'_201  and  N1_202
REMARK   85  A    between atoms: P_210  and  OP2_212
REMARK   86  A    between atoms: P_210  and  O5'_213
REMARK   87  A    between atoms: O5'_213  and  C5'_214
REMARK   88  A    between atoms: C5'_214  and  C4'_215
REMARK   89  A    between atoms: C3'_217  and  O3'_218
REMARK   90  A    between atoms: O3'_218  and  P_230
REMARK   91  A    between atoms: C2'_219  and  O2'_220
REMARK   92  A    between atoms: C1'_221  and  N1_222
REMARK   93  A    between atoms: P_230  and  OP2_232
REMARK   94  A    between atoms: P_230  and  O5'_233
REMARK   95  A    between atoms: O5'_233  and  C5'_234
REMARK   96  A    between atoms: C5'_234  and  C4'_235
REMARK   97  A    between atoms: C3'_237  and  O3'_238
REMARK   98  A    between atoms: O3'_238  and  P_250
REMARK   99  A    between atoms: C2'_239  and  O2'_240
REMARK  100  A    between atoms: C1'_241  and  N1_242
REMARK  101  A    between atoms: P_250  and  OP2_252
REMARK  102  A    between atoms: P_250  and  O5'_253
REMARK  103  A    between atoms: O5'_253  and  C5'_254
REMARK  104  A    between atoms: C5'_254  and  C4'_255
REMARK  105  A    between atoms: C3'_257  and  O3'_258
REMARK  106  A    between atoms: O3'_258  and  P_270
REMARK  107  A    between atoms: C2'_259  and  O2'_260
REMARK  108  A    between atoms: C1'_261  and  N1_262
REMARK  109  A    between atoms: P_270  and  OP2_272
REMARK  110  A    between atoms: P_270  and  O5'_273
REMARK  111  A    between atoms: O5'_273  and  C5'_274
REMARK  112  A    between atoms: C5'_274  and  C4'_275
REMARK  113  A    between atoms: C3'_277  and  O3'_278
REMARK  114  A    between atoms: O3'_278  and  P_292
REMARK  115  A    between atoms: C2'_279  and  O2'_280
REMARK  116  A    between atoms: C1'_281  and  N9_282
REMARK  117  A    between atoms: P_292  and  OP2_294
REMARK  118  A    between atoms: P_292  and  O5'_295
REMARK  119  A    between atoms: O5'_295  and  C5'_296
REMARK  120  A    between atoms: C5'_296  and  C4'_297
REMARK  121  A    between atoms: C2'_301  and  O2'_302
REMARK  122  A    between atoms: P_312  and  OP2_314
REMARK  123  A    between atoms: C3'_319  and  O3'_320
REMARK  124  A    between atoms: O3'_320  and  P_332
REMARK  125  A    between atoms: C2'_321  and  O2'_322
REMARK  126  A    between atoms: P_332  and  OP2_334
REMARK  127  A    between atoms: P_332  and  O5'_335
REMARK  128  A    between atoms: O5'_335  and  C5'_336
REMARK  129  A    between atoms: C5'_336  and  C4'_337
REMARK  130  A    between atoms: C3'_339  and  O3'_340
REMARK  131  A    between atoms: O3'_340  and  P_352
REMARK  132  A    between atoms: C2'_341  and  O2'_342
REMARK  133  A    between atoms: C1'_343  and  N1_344
REMARK  134  A    between atoms: P_352  and  OP2_354
REMARK  135  A    between atoms: P_352  and  O5'_355
REMARK  136  A    between atoms: O5'_355  and  C5'_356
REMARK  137  A    between atoms: C5'_356  and  C4'_357
REMARK  138  A    between atoms: C3'_359  and  O3'_360
REMARK  139  A    between atoms: O3'_360  and  P_375
REMARK  140  A    between atoms: C2'_361  and  O2'_362
REMARK  141  A    between atoms: C1'_363  and  N9_364
REMARK  142  A    between atoms: P_375  and  OP2_377
REMARK  143  A    between atoms: P_375  and  O5'_378
REMARK  144  A    between atoms: O5'_378  and  C5'_379
REMARK  145  A    between atoms: C5'_379  and  C4'_380
REMARK  146  A    between atoms: C3'_382  and  O3'_383
REMARK  147  A    between atoms: O3'_383  and  P_397
REMARK  148  A    between atoms: C2'_384  and  O2'_385
REMARK  149  A    between atoms: C1'_386  and  N9_387
REMARK  150  A    between atoms: P_397  and  OP2_399
REMARK  151  A    between atoms: P_397  and  O5'_400
REMARK  152  A    between atoms: O5'_400  and  C5'_401
REMARK  153  A    between atoms: C5'_401  and  C4'_402
REMARK  154  A    between atoms: C3'_404  and  O3'_405
REMARK  155  A    between atoms: O3'_405  and  P_419
REMARK  156  A    between atoms: C2'_406  and  O2'_407
REMARK  157  A    between atoms: C1'_408  and  N9_409
REMARK  158  A    between atoms: P_419  and  OP2_421
REMARK  159  A    between atoms: P_419  and  O5'_422
REMARK  160  A    between atoms: O5'_422  and  C5'_423
REMARK  161  A    between atoms: C5'_423  and  C4'_424
REMARK  162  A    between atoms: C3'_426  and  O3'_427
REMARK  163  A    between atoms: O3'_427  and  P_441
REMARK  164  A    between atoms: C2'_428  and  O2'_429
REMARK  165  A    between atoms: C1'_430  and  N9_431
REMARK  166  A    between atoms: P_441  and  OP2_443
REMARK  167  A    between atoms: P_441  and  O5'_444
REMARK  168  A    between atoms: O5'_444  and  C5'_445
REMARK  169  A    between atoms: C5'_445  and  C4'_446
REMARK  170  A    between atoms: C3'_448  and  O3'_449
REMARK  171  A    between atoms: O3'_449  and  P_461
REMARK  172  A    between atoms: C2'_450  and  O2'_451
REMARK  173  A    between atoms: C1'_452  and  N1_453
REMARK  174  A    between atoms: P_461  and  OP2_463
REMARK  175  A    between atoms: P_461  and  O5'_464
REMARK  176  A    between atoms: O5'_464  and  C5'_465
REMARK  177  A    between atoms: C5'_465  and  C4'_466
REMARK  178  A    between atoms: C3'_468  and  O3'_469
REMARK  179  A    between atoms: O3'_469  and  P_481
REMARK  180  A    between atoms: C2'_470  and  O2'_471
REMARK  181  A    between atoms: C1'_472  and  N1_473
REMARK  182  A    between atoms: P_481  and  OP1_482
REMARK  183  A    between atoms: P_481  and  O5'_484
REMARK  184  A    between atoms: O5'_484  and  C5'_485
REMARK  185  A    between atoms: C5'_485  and  C4'_486
REMARK  186  A    between atoms: C3'_488  and  O3'_489
REMARK  187  A    between atoms: O3'_489  and  P_501
REMARK  188  A    between atoms: C2'_490  and  O2'_491
REMARK  189  A    between atoms: C1'_492  and  N1_493
REMARK  190  A    between atoms: P_501  and  OP1_502
REMARK  191  A    between atoms: P_501  and  O5'_504
REMARK  192  A    between atoms: O5'_504  and  C5'_505
REMARK  193  A    between atoms: C5'_505  and  C4'_506
REMARK  194  A    between atoms: C3'_508  and  O3'_509
REMARK  195  A    between atoms: O3'_509  and  P_521
REMARK  196  A    between atoms: C2'_510  and  O2'_511
REMARK  197  A    between atoms: C1'_512  and  N1_513
REMARK  198  A    between atoms: P_521  and  OP1_522
REMARK  199  A    between atoms: P_521  and  O5'_524
REMARK  200  A    between atoms: O5'_524  and  C5'_525
REMARK  201  A    between atoms: C5'_525  and  C4'_526
REMARK  202  A    between atoms: C3'_528  and  O3'_529
REMARK  203  A    between atoms: O3'_529  and  P_541
REMARK  204  A    between atoms: C2'_530  and  O2'_531
REMARK  205  A    between atoms: C1'_532  and  N1_533
REMARK  206  A    between atoms: P_541  and  OP1_542
REMARK  207  A    between atoms: P_541  and  O5'_544
REMARK  208  A    between atoms: O5'_544  and  C5'_545
REMARK  209  A    between atoms: C5'_545  and  C4'_546
REMARK  210  A    between atoms: C3'_548  and  O3'_549
REMARK  211  A    between atoms: O3'_549  and  P_561
REMARK  212  A    between atoms: C2'_550  and  O2'_551
REMARK  213  A    between atoms: C1'_552  and  N1_553
REMARK  214  A    between atoms: P_561  and  OP1_562
REMARK  215  A    between atoms: P_561  and  O5'_564
REMARK  216  A    between atoms: O5'_564  and  C5'_565
REMARK  217  A    between atoms: C5'_565  and  C4'_566
REMARK  218  A    between atoms: C3'_568  and  O3'_569
REMARK  219  A    between atoms: O3'_569  and  P_581
REMARK  220  A    between atoms: C2'_570  and  O2'_571
REMARK  221  A    between atoms: C1'_572  and  N1_573
REMARK  222  A    between atoms: P_581  and  OP2_583
REMARK  223  A    between atoms: P_581  and  O5'_584
REMARK  224  A    between atoms: O5'_584  and  C5'_585
REMARK  225  A    between atoms: C5'_585  and  C4'_586
REMARK  226  A    between atoms: C3'_588  and  O3'_589
REMARK  227  A    between atoms: O3'_589  and  P_603
REMARK  228  A    between atoms: C2'_590  and  O2'_591
REMARK  229  A    between atoms: C1'_592  and  N9_593
REMARK  230  A    between atoms: P_603  and  OP2_605
REMARK  231  A    between atoms: P_603  and  O5'_606
REMARK  232  A    between atoms: O5'_606  and  C5'_607
REMARK  233  A    between atoms: C5'_607  and  C4'_608
REMARK  234  A    between atoms: C3'_610  and  O3'_611
REMARK  235  A    between atoms: O3'_611  and  P_625
REMARK  236  A    between atoms: C2'_612  and  O2'_613
REMARK  237  A    between atoms: C1'_614  and  N9_615
REMARK  238  A    between atoms: P_625  and  OP2_627
REMARK  239  A    between atoms: P_625  and  O5'_628
REMARK  240  A    between atoms: O5'_628  and  C5'_629
REMARK  241  A    between atoms: C5'_629  and  C4'_630
REMARK  242  A    between atoms: C3'_632  and  O3'_633
REMARK  243  A    between atoms: O3'_633  and  P_647
REMARK  244  A    between atoms: C2'_634  and  O2'_635
REMARK  245  A    between atoms: C1'_636  and  N9_637
REMARK  246  A    between atoms: P_647  and  OP2_649
REMARK  247  A    between atoms: P_647  and  O5'_650
REMARK  248  A    between atoms: O5'_650  and  C5'_651
REMARK  249  A    between atoms: C5'_651  and  C4'_652
REMARK  250  A    between atoms: C3'_654  and  O3'_655
REMARK  251  A    between atoms: O3'_655  and  P_669
REMARK  252  A    between atoms: C2'_656  and  O2'_657
REMARK  253  A    between atoms: C1'_658  and  N9_659
REMARK  254  A    between atoms: P_669  and  OP2_671
REMARK  255  A    between atoms: P_669  and  O5'_672
REMARK  256  A    between atoms: O5'_672  and  C5'_673
REMARK  257  A    between atoms: C5'_673  and  C4'_674
REMARK  258  A    between atoms: C3'_676  and  O3'_677
REMARK  259  A    between atoms: O3'_677  and  P_689
REMARK  260  A    between atoms: C2'_678  and  O2'_679
REMARK  261  A    between atoms: C1'_680  and  N1_681
REMARK  262  A    between atoms: P_689  and  OP2_691
REMARK  263  A    between atoms: P_689  and  O5'_692
REMARK  264  A    between atoms: O5'_692  and  C5'_693
REMARK  265  A    between atoms: C5'_693  and  C4'_694
REMARK  266  A    between atoms: C3'_696  and  O3'_697
REMARK  267  A    between atoms: O3'_697  and  P_711
REMARK  268  A    between atoms: C2'_698  and  O2'_699
REMARK  269  A    between atoms: C1'_700  and  N9_701
REMARK  270  A    between atoms: P_711  and  OP1_712
REMARK  271  A    between atoms: P_711  and  O5'_714
REMARK  272  A    between atoms: O5'_714  and  C5'_715
REMARK  273  A    between atoms: C5'_715  and  C4'_716
REMARK  274  A    between atoms: C3'_718  and  O3'_719
REMARK  275  A    between atoms: O3'_719  and  P_733
REMARK  276  A    between atoms: C2'_720  and  O2'_721
REMARK  277  A    between atoms: C1'_722  and  N9_723
REMARK  278  A    between atoms: C6_727  and  N6_728
REMARK  279  A    between atoms: P_733  and  OP1_734
REMARK  280  A    between atoms: P_733  and  O5'_736
REMARK  281  A    between atoms: O5'_736  and  C5'_737
REMARK  282  A    between atoms: C5'_737  and  C4'_738
REMARK  283  A    between atoms: C3'_740  and  O3'_741
REMARK  284  A    between atoms: O3'_741  and  P_753
REMARK  285  A    between atoms: C2'_742  and  O2'_743
REMARK  286  A    between atoms: C1'_744  and  N1_745
REMARK  287  A    between atoms: P_753  and  OP1_754
REMARK  288  A    between atoms: P_753  and  O5'_756
REMARK  289  A    between atoms: O5'_756  and  C5'_757
REMARK  290  A    between atoms: C5'_757  and  C4'_758
REMARK  291  A    between atoms: C3'_760  and  O3'_761
REMARK  292  A    between atoms: O3'_761  and  P_775
REMARK  293  A    between atoms: C2'_762  and  O2'_763
REMARK  294  A    between atoms: C1'_764  and  N9_765
REMARK  295  A    between atoms: C6_769  and  N6_770
REMARK  296  A    between atoms: P_775  and  OP1_776
REMARK  297  A    between atoms: P_775  and  O5'_778
REMARK  298  A    between atoms: O5'_778  and  C5'_779
REMARK  299  A    between atoms: C5'_779  and  C4'_780
REMARK  300  A    between atoms: C3'_782  and  O3'_783
REMARK  301  A    between atoms: O3'_783  and  P_795
REMARK  302  A    between atoms: C2'_784  and  O2'_785
REMARK  303  A    between atoms: C1'_786  and  N1_787
REMARK  304  A    between atoms: P_795  and  OP2_797
REMARK  305  A    between atoms: P_795  and  O5'_798
REMARK  306  A    between atoms: O5'_798  and  C5'_799
REMARK  307  A    between atoms: C5'_799  and  C4'_800
REMARK  308  A    between atoms: C2'_804  and  O2'_805
REMARK  309  A    between atoms: P_815  and  OP2_817
REMARK  310  A    between atoms: C2'_824  and  O2'_825
REMARK  311  A    between atoms: C1'_826  and  N1_827
REMARK  312  A    between atoms: P_835  and  OP1_836
REMARK  313  A    between atoms: C2'_844  and  O2'_845
REMARK  314  A    between atoms: C1'_846  and  N1_847
REMARK  315  A    between atoms: P_855  and  OP2_857
REMARK  316  A    between atoms: C2'_864  and  O2'_865
REMARK  317  A    between atoms: C1'_866  and  N1_867
REMARK  318  A    between atoms: P_875  and  OP1_876
REMARK  319  A    between atoms: C3'_882  and  O3'_883
REMARK  320  A    between atoms: O3'_883  and  P_897
REMARK  321  A    between atoms: C2'_884  and  O2'_885
REMARK  322  A    between atoms: P_897  and  OP1_898
REMARK  323  A    between atoms: P_897  and  O5'_900
REMARK  324  A    between atoms: O5'_900  and  C5'_901
REMARK  325  A    between atoms: C5'_901  and  C4'_902
REMARK  326  A    between atoms: C3'_904  and  O3'_905
REMARK  327  A    between atoms: O3'_905  and  P_917
REMARK  328  A    between atoms: C2'_906  and  O2'_907
REMARK  329  A    between atoms: C1'_908  and  N1_909
REMARK  330  A    between atoms: P_917  and  OP1_918
REMARK  331  A    between atoms: P_917  and  O5'_920
REMARK  332  A    between atoms: O5'_920  and  C5'_921
REMARK  333  A    between atoms: C5'_921  and  C4'_922
REMARK  334  A    between atoms: C3'_924  and  O3'_925
REMARK  335  A    between atoms: O3'_925  and  P_937
REMARK  336  A    between atoms: C2'_926  and  O2'_927
REMARK  337  A    between atoms: C1'_928  and  N1_929
REMARK  338  A    between atoms: P_937  and  OP1_938
REMARK  339  A    between atoms: P_937  and  O5'_940
REMARK  340  A    between atoms: O5'_940  and  C5'_941
REMARK  341  A    between atoms: C5'_941  and  C4'_942
REMARK  342  A    between atoms: C3'_944  and  O3'_945
REMARK  343  A    between atoms: O3'_945  and  P_957
REMARK  344  A    between atoms: C2'_946  and  O2'_947
REMARK  345  A    between atoms: C1'_948  and  N1_949
REMARK  346  A    between atoms: P_957  and  OP1_958
REMARK  347  A    between atoms: P_957  and  O5'_960
REMARK  348  A    between atoms: O5'_960  and  C5'_961
REMARK  349  A    between atoms: C5'_961  and  C4'_962
REMARK  350  A    between atoms: C3'_964  and  O3'_965
REMARK  351  A    between atoms: O3'_965  and  P_977
REMARK  352  A    between atoms: C2'_966  and  O2'_967
REMARK  353  A    between atoms: C1'_968  and  N1_969
REMARK  354  A    between atoms: P_977  and  OP1_978
REMARK  355  A    between atoms: P_977  and  O5'_980
REMARK  356  A    between atoms: O5'_980  and  C5'_981
REMARK  357  A    between atoms: C5'_981  and  C4'_982
REMARK  358  A    between atoms: C3'_984  and  O3'_985
REMARK  359  A    between atoms: O3'_985  and  P_999
REMARK  360  A    between atoms: C2'_986  and  O2'_987
REMARK  361  A    between atoms: C1'_988  and  N9_989
REMARK  362  A    between atoms: C6_993  and  N6_994
REMARK  363  A    between atoms: P_999  and  OP1_1000
REMARK  364  A    between atoms: P_999  and  O5'_1002
REMARK  365  A    between atoms: O5'_1002  and  C5'_1003
REMARK  366  A    between atoms: C5'_1003  and  C4'_1004
REMARK  367  A    between atoms: C3'_1006  and  O3'_1007
REMARK  368  A    between atoms: O3'_1007  and  P_1019
REMARK  369  A    between atoms: C2'_1008  and  O2'_1009
REMARK  370  A    between atoms: C1'_1010  and  N1_1011
REMARK  371  A    between atoms: P_1019  and  OP1_1020
REMARK  372  A    between atoms: P_1019  and  O5'_1022
REMARK  373  A    between atoms: O5'_1022  and  C5'_1023
REMARK  374  A    between atoms: C5'_1023  and  C4'_1024
REMARK  375  A    between atoms: C3'_1026  and  O3'_1027
REMARK  376  A    between atoms: O3'_1027  and  P_1039
REMARK  377  A    between atoms: C2'_1028  and  O2'_1029
REMARK  378  A    between atoms: C1'_1030  and  N1_1031
REMARK  379  A    between atoms: P_1039  and  OP2_1041
REMARK  380  A    between atoms: P_1039  and  O5'_1042
REMARK  381  A    between atoms: O5'_1042  and  C5'_1043
REMARK  382  A    between atoms: C5'_1043  and  C4'_1044
REMARK  383  A    between atoms: C3'_1046  and  O3'_1047
REMARK  384  A    between atoms: O3'_1047  and  P_1059
REMARK  385  A    between atoms: C2'_1048  and  O2'_1049
REMARK  386  A    between atoms: C1'_1050  and  N1_1051
REMARK  387  A    between atoms: P_1059  and  OP2_1061
REMARK  388  A    between atoms: P_1059  and  O5'_1062
REMARK  389  A    between atoms: O5'_1062  and  C5'_1063
REMARK  390  A    between atoms: C5'_1063  and  C4'_1064
REMARK  391  A    between atoms: C3'_1066  and  O3'_1067
REMARK  392  A    between atoms: O3'_1067  and  P_1079
REMARK  393  A    between atoms: C2'_1068  and  O2'_1069
REMARK  394  A    between atoms: C1'_1070  and  N1_1071
REMARK  395  A    between atoms: P_1079  and  OP2_1081
REMARK  396  A    between atoms: P_1079  and  O5'_1082
REMARK  397  A    between atoms: O5'_1082  and  C5'_1083
REMARK  398  A    between atoms: C5'_1083  and  C4'_1084
REMARK  399  A    between atoms: C3'_1086  and  O3'_1087
REMARK  400  A    between atoms: O3'_1087  and  P_1101
REMARK  401  A    between atoms: C2'_1088  and  O2'_1089
REMARK  402  A    between atoms: C1'_1090  and  N9_1091
REMARK  403  A    between atoms: P_1101  and  OP2_1103
REMARK  404  A    between atoms: P_1101  and  O5'_1104
REMARK  405  A    between atoms: O5'_1104  and  C5'_1105
REMARK  406  A    between atoms: C5'_1105  and  C4'_1106
REMARK  407  A    between atoms: C3'_1108  and  O3'_1109
REMARK  408  A    between atoms: O3'_1109  and  P_1123
REMARK  409  A    between atoms: C2'_1110  and  O2'_1111
REMARK  410  A    between atoms: C1'_1112  and  N9_1113
REMARK  411  A    between atoms: P_1123  and  OP2_1125
REMARK  412  A    between atoms: P_1123  and  O5'_1126
REMARK  413  A    between atoms: O5'_1126  and  C5'_1127
REMARK  414  A    between atoms: C5'_1127  and  C4'_1128
REMARK  415  A    between atoms: C3'_1130  and  O3'_1131
REMARK  416  A    between atoms: O3'_1131  and  P_1145
REMARK  417  A    between atoms: C2'_1132  and  O2'_1133
REMARK  418  A    between atoms: C1'_1134  and  N9_1135
REMARK  419  A    between atoms: P_1145  and  OP1_1146
REMARK  420  A    between atoms: P_1145  and  O5'_1148
REMARK  421  A    between atoms: O5'_1148  and  C5'_1149
REMARK  422  A    between atoms: C5'_1149  and  C4'_1150
REMARK  423  A    between atoms: C3'_1152  and  O3'_1153
REMARK  424  A    between atoms: O3'_1153  and  P_1167
REMARK  425  A    between atoms: C2'_1154  and  O2'_1155
REMARK  426  A    between atoms: C1'_1156  and  N9_1157
REMARK  427  A    between atoms: C6_1161  and  N6_1162
REMARK  428  A    between atoms: P_1167  and  OP1_1168
REMARK  429  A    between atoms: P_1167  and  O5'_1170
REMARK  430  A    between atoms: O5'_1170  and  C5'_1171
REMARK  431  A    between atoms: C5'_1171  and  C4'_1172
REMARK  432  A    between atoms: C3'_1174  and  O3'_1175
REMARK  433  A    between atoms: O3'_1175  and  P_1189
REMARK  434  A    between atoms: C2'_1176  and  O2'_1177
REMARK  435  A    between atoms: C1'_1178  and  N9_1179
REMARK  436  A    between atoms: C6_1183  and  N6_1184
REMARK  437  A    between atoms: P_1189  and  OP1_1190
REMARK  438  A    between atoms: P_1189  and  O5'_1192
REMARK  439  A    between atoms: O5'_1192  and  C5'_1193
REMARK  440  A    between atoms: C5'_1193  and  C4'_1194
REMARK  441  A    between atoms: C3'_1196  and  O3'_1197
REMARK  442  A    between atoms: O3'_1197  and  P_1209
REMARK  443  A    between atoms: C2'_1198  and  O2'_1199
REMARK  444  A    between atoms: C1'_1200  and  N1_1201
REMARK  445  A    between atoms: P_1209  and  OP2_1211
REMARK  446  A    between atoms: P_1209  and  O5'_1212
REMARK  447  A    between atoms: O5'_1212  and  C5'_1213
REMARK  448  A    between atoms: C5'_1213  and  C4'_1214
REMARK  449  A    between atoms: C3'_1216  and  O3'_1217
REMARK  450  A    between atoms: O3'_1217  and  P_1231
REMARK  451  A    between atoms: C2'_1218  and  O2'_1219
REMARK  452  A    between atoms: C1'_1220  and  N9_1221
REMARK  453  A    between atoms: C6_1225  and  N6_1226
REMARK  454  A    between atoms: P_1231  and  OP1_1232
REMARK  455  A    between atoms: P_1231  and  O5'_1234
REMARK  456  A    between atoms: O5'_1234  and  C5'_1235
REMARK  457  A    between atoms: C5'_1235  and  C4'_1236
REMARK  458  A    between atoms: C3'_1238  and  O3'_1239
REMARK  459  A    between atoms: O3'_1239  and  P_1254
REMARK  460  A    between atoms: C2'_1240  and  O2'_1241
REMARK  461  A    between atoms: C1'_1242  and  N9_1243
REMARK  462  A    between atoms: P_1254  and  OP2_1256
REMARK  463  A    between atoms: P_1254  and  O5'_1257
REMARK  464  A    between atoms: O5'_1257  and  C5'_1258
REMARK  465  A    between atoms: C5'_1258  and  C4'_1259
REMARK  466  A    between atoms: C3'_1261  and  O3'_1262
REMARK  467  A    between atoms: O3'_1262  and  P_1276
REMARK  468  A    between atoms: C2'_1263  and  O2'_1264
REMARK  469  A    between atoms: C1'_1265  and  N9_1266
REMARK  470  A    between atoms: P_1276  and  OP2_1278
REMARK  471  A    between atoms: P_1276  and  O5'_1279
REMARK  472  A    between atoms: O5'_1279  and  C5'_1280
REMARK  473  A    between atoms: C5'_1280  and  C4'_1281
REMARK  474  A    between atoms: C3'_1283  and  O3'_1284
REMARK  475  A    between atoms: O3'_1284  and  P_1296
REMARK  476  A    between atoms: C2'_1285  and  O2'_1286
REMARK  477  A    between atoms: C1'_1287  and  N1_1288
REMARK  478  A    between atoms: P_1296  and  OP2_1298
REMARK  479  A    between atoms: P_1296  and  O5'_1299
REMARK  480  A    between atoms: O5'_1299  and  C5'_1300
REMARK  481  A    between atoms: C5'_1300  and  C4'_1301
REMARK  482  A    between atoms: C3'_1303  and  O3'_1304
REMARK  483  A    between atoms: O3'_1304  and  P_1316
REMARK  484  A    between atoms: C2'_1305  and  O2'_1306
REMARK  485  A    between atoms: C1'_1307  and  N1_1308
REMARK  486  A    between atoms: P_1316  and  OP2_1318
REMARK  487  A    between atoms: P_1316  and  O5'_1319
REMARK  488  A    between atoms: O5'_1319  and  C5'_1320
REMARK  489  A    between atoms: C5'_1320  and  C4'_1321
REMARK  490  A    between atoms: C3'_1323  and  O3'_1324
REMARK  491  A    between atoms: O3'_1324  and  P_1338
REMARK  492  A    between atoms: C2'_1325  and  O2'_1326
REMARK  493  A    between atoms: C1'_1327  and  N9_1328
REMARK  494  A    between atoms: P_1338  and  OP1_1339
REMARK  495  A    between atoms: P_1338  and  O5'_1341
REMARK  496  A    between atoms: O5'_1341  and  C5'_1342
REMARK  497  A    between atoms: C5'_1342  and  C4'_1343
REMARK  498  A    between atoms: C3'_1345  and  O3'_1346
REMARK  499  A    between atoms: O3'_1346  and  P_1358
REMARK  500  A    between atoms: C2'_1347  and  O2'_1348
REMARK  501  A    between atoms: C1'_1349  and  N1_1350
REMARK  502  A    between atoms: P_1358  and  OP1_1359
REMARK  503  A    between atoms: P_1358  and  O5'_1361
REMARK  504  A    between atoms: O5'_1361  and  C5'_1362
REMARK  505  A    between atoms: C5'_1362  and  C4'_1363
REMARK  506  A    between atoms: C3'_1365  and  O3'_1366
REMARK  507  A    between atoms: O3'_1366  and  P_1380
REMARK  508  A    between atoms: C2'_1367  and  O2'_1368
REMARK  509  A    between atoms: C1'_1369  and  N9_1370
REMARK  510  A    between atoms: C6_1374  and  N6_1375
REMARK  511  A    between atoms: P_1380  and  OP1_1381
REMARK  512  A    between atoms: P_1380  and  O5'_1383
REMARK  513  A    between atoms: O5'_1383  and  C5'_1384
REMARK  514  A    between atoms: C5'_1384  and  C4'_1385
REMARK  515  A    between atoms: C3'_1387  and  O3'_1388
REMARK  516  A    between atoms: O3'_1388  and  P_1402
REMARK  517  A    between atoms: C2'_1389  and  O2'_1390
REMARK  518  A    between atoms: C1'_1391  and  N9_1392
REMARK  519  A    between atoms: C6_1396  and  N6_1397
REMARK  520  A    between atoms: P_1402  and  OP1_1403
REMARK  521  A    between atoms: P_1402  and  O5'_1405
REMARK  522  A    between atoms: O5'_1405  and  C5'_1406
REMARK  523  A    between atoms: C5'_1406  and  C4'_1407
REMARK  524  A    between atoms: C3'_1409  and  O3'_1410
REMARK  525  A    between atoms: O3'_1410  and  P_1424
REMARK  526  A    between atoms: C2'_1411  and  O2'_1412
REMARK  527  A    between atoms: C1'_1413  and  N9_1414
REMARK  528  A    between atoms: C6_1418  and  N6_1419
REMARK  529  A    between atoms: P_1424  and  OP1_1425
REMARK  530  A    between atoms: P_1424  and  O5'_1427
REMARK  531  A    between atoms: O5'_1427  and  C5'_1428
REMARK  532  A    between atoms: C5'_1428  and  C4'_1429
REMARK  533  A    between atoms: C3'_1431  and  O3'_1432
REMARK  534  A    between atoms: O3'_1432  and  P_1446
REMARK  535  A    between atoms: C2'_1433  and  O2'_1434
REMARK  536  A    between atoms: C1'_1435  and  N9_1436
REMARK  537  A    between atoms: C6_1440  and  N6_1441
REMARK  538  A    between atoms: P_1446  and  OP1_1447
REMARK  539  A    between atoms: P_1446  and  O5'_1449
REMARK  540  A    between atoms: O5'_1449  and  C5'_1450
REMARK  541  A    between atoms: C5'_1450  and  C4'_1451
REMARK  542  A    between atoms: C3'_1453  and  O3'_1454
REMARK  543  A    between atoms: O3'_1454  and  P_1468
REMARK  544  A    between atoms: C2'_1455  and  O2'_1456
REMARK  545  A    between atoms: C1'_1457  and  N9_1458
REMARK  546  A    between atoms: C6_1462  and  N6_1463
REMARK  547  A    between atoms: P_1468  and  OP1_1469
REMARK  548  A    between atoms: P_1468  and  O5'_1471
REMARK  549  A    between atoms: O5'_1471  and  C5'_1472
REMARK  550  A    between atoms: C5'_1472  and  C4'_1473
REMARK  551  A    between atoms: C3'_1475  and  O3'_1476
REMARK  552  A    between atoms: O3'_1476  and  P_1488
REMARK  553  A    between atoms: C2'_1477  and  O2'_1478
REMARK  554  A    between atoms: C1'_1479  and  N1_1480
REMARK  555  A    between atoms: P_1488  and  OP1_1489
REMARK  556  A    between atoms: P_1488  and  O5'_1491
REMARK  557  A    between atoms: O5'_1491  and  C5'_1492
REMARK  558  A    between atoms: C5'_1492  and  C4'_1493
REMARK  559  A    between atoms: C3'_1495  and  O3'_1496
REMARK  560  A    between atoms: O3'_1496  and  P_1508
REMARK  561  A    between atoms: C2'_1497  and  O2'_1498
REMARK  562  A    between atoms: C1'_1499  and  N1_1500
REMARK  563  A    between atoms: P_1508  and  OP1_1509
REMARK  564  A    between atoms: P_1508  and  O5'_1511
REMARK  565  A    between atoms: O5'_1511  and  C5'_1512
REMARK  566  A    between atoms: C5'_1512  and  C4'_1513
REMARK  567  A    between atoms: C3'_1515  and  O3'_1516
REMARK  568  A    between atoms: O3'_1516  and  P_1528
REMARK  569  A    between atoms: C2'_1517  and  O2'_1518
REMARK  570  A    between atoms: C1'_1519  and  N1_1520
REMARK  571  A    between atoms: P_1528  and  OP2_1530
REMARK  572  A    between atoms: P_1528  and  O5'_1531
REMARK  573  A    between atoms: O5'_1531  and  C5'_1532
REMARK  574  A    between atoms: C5'_1532  and  C4'_1533
REMARK  575  A    between atoms: C3'_1535  and  O3'_1536
REMARK  576  A    between atoms: O3'_1536  and  P_1548
REMARK  577  A    between atoms: C2'_1537  and  O2'_1538
REMARK  578  A    between atoms: C1'_1539  and  N1_1540
REMARK  579  A    between atoms: P_1548  and  OP2_1550
REMARK  580  A    between atoms: P_1548  and  O5'_1551
REMARK  581  A    between atoms: O5'_1551  and  C5'_1552
REMARK  582  A    between atoms: C5'_1552  and  C4'_1553
REMARK  583  A    between atoms: C3'_1555  and  O3'_1556
REMARK  584  A    between atoms: O3'_1556  and  P_1568
REMARK  585  A    between atoms: C2'_1557  and  O2'_1558
REMARK  586  A    between atoms: C1'_1559  and  N1_1560
REMARK  587  A    between atoms: P_1568  and  OP2_1570
REMARK  588  A    between atoms: P_1568  and  O5'_1571
REMARK  589  A    between atoms: O5'_1571  and  C5'_1572
REMARK  590  A    between atoms: C5'_1572  and  C4'_1573
REMARK  591  A    between atoms: C3'_1575  and  O3'_1576
REMARK  592  A    between atoms: C2'_1577  and  O2'_1578
REMARK  593  A    between atoms: C1'_1579  and  N9_1580
REMARK  594  A    between atoms: C6_1584  and  N6_1585
REMARK                            x       y       z     vdW  Elec       q    Type
REMARK                         _______ _______ _______ _____ _____    ______ ____
ROOT
ATOM      1  P   U   B  39     -19.431 -18.200 -50.001  0.00  0.00    +0.000 P 
ATOM      2  OP1 U   B  39     -20.903 -18.330 -50.085  0.00  0.00    +0.000 OA
ENDROOT
BRANCH   1   3
ATOM      3  OP2 U   B  39     -18.580 -19.417 -50.028  0.00  0.00    +0.000 OA
ATOM      4  H   U   B  39     -18.779 -19.933 -50.825  0.00  0.00    +0.000 HD
ENDBRANCH   1   3
BRANCH   1   5
ATOM      5  O3' U   B  38     -19.090 -17.351 -48.670  0.00  0.00    +0.000 OA
BRANCH   5   8
ATOM      6  C4' U   B  38     -17.486 -17.105 -46.839  0.00  0.00    +0.000 C 
ATOM      7  O4' U   B  38     -16.273 -16.326 -46.667  0.00  0.00    +0.000 OA
ATOM      8  C3' U   B  38     -17.740 -17.050 -48.333  0.00  0.00    +0.000 C 
ATOM      9  C2' U   B  38     -17.339 -15.617 -48.666  0.00  0.00    +0.000 C 
ATOM     10  C1' U   B  38     -16.116 -15.438 -47.758  0.00  0.00    +0.000 C 
BRANCH  10  11
ATOM     11  N1  U   B  38     -14.845 -15.746 -48.455  0.00  0.00    +0.000 N 
ATOM     12  C2  U   B  38     -14.335 -14.782 -49.312  0.00  0.00    +0.000 A 
ATOM     13  O2  U   B  38     -14.880 -13.705 -49.507  0.00  0.00    +0.000 OA
ATOM     14  N3  U   B  38     -13.156 -15.120 -49.936  0.00  0.00    +0.000 N 
ATOM     15  C4  U   B  38     -12.451 -16.301 -49.797  0.00  0.00    +0.000 A 
ATOM     16  O4  U   B  38     -11.405 -16.457 -50.430  0.00  0.00    +0.000 OA
ATOM     17  C5  U   B  38     -13.044 -17.247 -48.898  0.00  0.00    +0.000 A 
ATOM     18  C6  U   B  38     -14.191 -16.944 -48.273  0.00  0.00    +0.000 A 
ATOM     19  H   U   B  38     -12.774 -14.449 -50.547  0.00  0.00    +0.000 HD
ENDBRANCH  10  11
BRANCH   9  20
ATOM     20  O2' U   B  38     -18.334 -14.685 -48.307  0.00  0.00    +0.000 OA
ATOM     21  H   U   B  38     -18.536 -14.776 -47.363  0.00  0.00    +0.000 HD
ENDBRANCH   9  20
BRANCH   6  22
ATOM     22  C5' U   B  38     -17.311 -18.483 -46.252  0.00  0.00    +0.000 C 
BRANCH  22  23
ATOM     23  O5' U   B  38     -16.303 -19.211 -46.952  0.00  0.00    +0.000 OA
BRANCH  23  24
ATOM     24  P   U   B  38     -15.657 -20.524 -46.325  0.00  0.00    +0.000 P 
ATOM     25  OP2 U   B  38     -14.560 -20.979 -47.215  0.00  0.00    +0.000 OA
BRANCH  24  26
ATOM     26  OP1 U   B  38     -16.751 -21.462 -45.971  0.00  0.00    +0.000 OA
ATOM     27  H   U   B  38     -17.142 -21.824 -46.782  0.00  0.00    +0.000 HD
ENDBRANCH  24  26
BRANCH  24  28
ATOM     28  O3' A   B  37     -15.040 -19.951 -44.962  0.00  0.00    +0.000 OA
BRANCH  28  31
ATOM     29  C4' A   B  37     -12.773 -19.754 -44.102  0.00  0.00    +0.000 C 
ATOM     30  O4' A   B  37     -11.924 -18.629 -43.763  0.00  0.00    +0.000 OA
ATOM     31  C3' A   B  37     -13.851 -19.165 -45.001  0.00  0.00    +0.000 C 
ATOM     32  C2' A   B  37     -14.029 -17.766 -44.435  0.00  0.00    +0.000 C 
ATOM     33  C1' A   B  37     -12.591 -17.412 -44.046  0.00  0.00    +0.000 C 
BRANCH  33  34
ATOM     34  N9  A   B  37     -11.850 -16.724 -45.114  0.00  0.00    +0.000 N 
ATOM     35  C8  A   B  37     -10.676 -17.130 -45.714  0.00  0.00    +0.000 A 
ATOM     36  N7  A   B  37     -10.235 -16.307 -46.638  0.00  0.00    +0.000 NA
ATOM     37  C5  A   B  37     -11.178 -15.288 -46.646  0.00  0.00    +0.000 A 
ATOM     38  C6  A   B  37     -11.281 -14.109 -47.405  0.00  0.00    +0.000 A 
ATOM     39  N1  A   B  37     -12.341 -13.305 -47.172  0.00  0.00    +0.000 NA
ATOM     40  C2  A   B  37     -13.233 -13.667 -46.237  0.00  0.00    +0.000 A 
ATOM     41  N3  A   B  37     -13.241 -14.747 -45.459  0.00  0.00    +0.000 NA
ATOM     42  C4  A   B  37     -12.172 -15.527 -45.716  0.00  0.00    +0.000 A 
BRANCH  38  43
ATOM     43  N6  A   B  37     -10.394 -13.745 -48.341  0.00  0.00    +0.000 N 
ATOM     44  H   A   B  37     -10.521 -12.906 -48.840  0.00  0.00    +0.000 HD
ATOM     45  H   A   B  37      -9.615 -14.317 -48.530  0.00  0.00    +0.000 HD
ENDBRANCH  38  43
ENDBRANCH  33  34
BRANCH  32  46
ATOM     46  O2' A   B  37     -14.847 -17.752 -43.282  0.00  0.00    +0.000 OA
ATOM     47  H   A   B  37     -14.472 -18.345 -42.612  0.00  0.00    +0.000 HD
ENDBRANCH  32  46
BRANCH  29  48
ATOM     48  C5' A   B  37     -11.954 -20.854 -44.734  0.00  0.00    +0.000 C 
BRANCH  48  49
ATOM     49  O5' A   B  37     -10.626 -20.848 -44.232  0.00  0.00    +0.000 OA
BRANCH  49  50
ATOM     50  P   A   B  37     -10.022 -22.141 -43.543  0.00  0.00    +0.000 P 
ATOM     51  OP2 A   B  37      -9.082 -22.766 -44.510  0.00  0.00    +0.000 OA
BRANCH  50  52
ATOM     52  OP1 A   B  37     -11.129 -22.948 -42.973  0.00  0.00    +0.000 OA
ATOM     53  H   A   B  37     -11.651 -23.335 -43.693  0.00  0.00    +0.000 HD
ENDBRANCH  50  52
BRANCH  50  54
ATOM     54  O3' U   B  36      -9.173 -21.512 -42.328  0.00  0.00    +0.000 OA
BRANCH  54  57
ATOM     55  C4' U   B  36      -7.054 -20.542 -41.612  0.00  0.00    +0.000 C 
ATOM     56  O4' U   B  36      -6.492 -19.205 -41.668  0.00  0.00    +0.000 OA
ATOM     57  C3' U   B  36      -8.222 -20.486 -42.575  0.00  0.00    +0.000 C 
ATOM     58  C2' U   B  36      -8.772 -19.083 -42.328  0.00  0.00    +0.000 C 
ATOM     59  C1' U   B  36      -7.478 -18.289 -42.107  0.00  0.00    +0.000 C 
BRANCH  59  60
ATOM     60  N1  U   B  36      -7.001 -17.612 -43.338  0.00  0.00    +0.000 N 
ATOM     61  C2  U   B  36      -7.599 -16.410 -43.682  0.00  0.00    +0.000 A 
ATOM     62  O2  U   B  36      -8.489 -15.897 -43.020  0.00  0.00    +0.000 OA
ATOM     63  N3  U   B  36      -7.122 -15.823 -44.831  0.00  0.00    +0.000 N 
ATOM     64  C4  U   B  36      -6.127 -16.304 -45.658  0.00  0.00    +0.000 A 
ATOM     65  O4  U   B  36      -5.808 -15.657 -46.659  0.00  0.00    +0.000 OA
ATOM     66  C5  U   B  36      -5.559 -17.552 -45.238  0.00  0.00    +0.000 A 
ATOM     67  C6  U   B  36      -6.006 -18.147 -44.120  0.00  0.00    +0.000 A 
ATOM     68  H   U   B  36      -7.535 -14.968 -45.091  0.00  0.00    +0.000 HD
ENDBRANCH  59  60
BRANCH  58  69
ATOM     69  O2' U   B  36      -9.574 -19.020 -41.168  0.00  0.00    +0.000 OA
ATOM     70  H   U   B  36      -9.062 -19.328 -40.404  0.00  0.00    +0.000 HD
ENDBRANCH  58  69
BRANCH  55  71
ATOM     71  C5' U   B  36      -5.990 -21.571 -41.927  0.00  0.00    +0.000 C 
BRANCH  71  72
ATOM     72  O5' U   B  36      -5.418 -21.345 -43.210  0.00  0.00    +0.000 OA
BRANCH  72  73
ATOM     73  P   U   B  36      -4.170 -22.203 -43.717  0.00  0.00    +0.000 P 
ATOM     74  OP2 U   B  36      -3.826 -21.743 -45.085  0.00  0.00    +0.000 OA
BRANCH  73  75
ATOM     75  OP1 U   B  36      -4.460 -23.634 -43.472  0.00  0.00    +0.000 OA
ATOM     76  H   U   B  36      -5.176 -23.924 -44.058  0.00  0.00    +0.000 HD
ENDBRANCH  73  75
BRANCH  73  77
ATOM     77  O3' A   B  35      -2.983 -21.765 -42.730  0.00  0.00    +0.000 OA
BRANCH  77  80
ATOM     78  C4' A   B  35      -1.055 -20.286 -42.375  0.00  0.00    +0.000 C 
ATOM     79  O4' A   B  35      -0.923 -18.914 -41.923  0.00  0.00    +0.000 OA
ATOM     80  C3' A   B  35      -2.535 -20.415 -42.686  0.00  0.00    +0.000 C 
ATOM     81  C2' A   B  35      -3.151 -19.616 -41.542  0.00  0.00    +0.000 C 
ATOM     82  C1' A   B  35      -2.170 -18.452 -41.433  0.00  0.00    +0.000 C 
BRANCH  82  83
ATOM     83  N9  A   B  35      -2.610 -17.292 -42.229  0.00  0.00    +0.000 N 
ATOM     84  C8  A   B  35      -2.113 -16.828 -43.423  0.00  0.00    +0.000 A 
ATOM     85  N7  A   B  35      -2.742 -15.766 -43.877  0.00  0.00    +0.000 NA
ATOM     86  C5  A   B  35      -3.718 -15.518 -42.921  0.00  0.00    +0.000 A 
ATOM     87  C6  A   B  35      -4.716 -14.535 -42.814  0.00  0.00    +0.000 A 
ATOM     88  N1  A   B  35      -5.526 -14.574 -41.734  0.00  0.00    +0.000 NA
ATOM     89  C2  A   B  35      -5.340 -15.538 -40.827  0.00  0.00    +0.000 A 
ATOM     90  N3  A   B  35      -4.437 -16.515 -40.815  0.00  0.00    +0.000 NA
ATOM     91  C4  A   B  35      -3.648 -16.448 -41.903  0.00  0.00    +0.000 A 
BRANCH  87  92
ATOM     92  N6  A   B  35      -4.907 -13.569 -43.725  0.00  0.00    +0.000 N 
ATOM     93  H   A   B  35      -4.329 -13.521 -44.520  0.00  0.00    +0.000 HD
ATOM     94  H   A   B  35      -5.626 -12.908 -43.598  0.00  0.00    +0.000 HD
ENDBRANCH  87  92
ENDBRANCH  82  83
BRANCH  81  95
ATOM     95  O2' A   B  35      -3.162 -20.342 -40.330  0.00  0.00    +0.000 OA
ATOM     96  H   A   B  35      -2.259 -20.619 -40.111  0.00  0.00    +0.000 HD
ENDBRANCH  81  95
BRANCH  78  97
ATOM     97  C5' A   B  35      -0.096 -20.555 -43.514  0.00  0.00    +0.000 C 
BRANCH  97  98
ATOM     98  O5' A   B  35      -0.151 -19.523 -44.492  0.00  0.00    +0.000 OA
BRANCH  98  99
ATOM     99  P   A   B  35       1.056 -19.314 -45.519  0.00  0.00    +0.000 P 
ATOM    100  OP2 A   B  35       0.633 -18.286 -46.508  0.00  0.00    +0.000 OA
BRANCH  99 101
ATOM    101  OP1 A   B  35       1.498 -20.644 -45.994  0.00  0.00    +0.000 OA
ATOM    102  H   A   B  35       2.232 -20.537 -46.620  0.00  0.00    +0.000 HD
ENDBRANCH  99 101
BRANCH  99 103
ATOM    103  O3' A   B  34       2.228 -18.704 -44.593  0.00  0.00    +0.000 OA
BRANCH 103 106
ATOM    104  C4' A   B  34       3.503 -16.693 -43.992  0.00  0.00    +0.000 C 
ATOM    105  O4' A   B  34       3.251 -15.579 -43.097  0.00  0.00    +0.000 OA
ATOM    106  C3' A   B  34       2.146 -17.361 -44.125  0.00  0.00    +0.000 C 
ATOM    107  C2' A   B  34       1.612 -17.245 -42.702  0.00  0.00    +0.000 C 
ATOM    108  C1' A   B  34       2.101 -15.850 -42.314  0.00  0.00    +0.000 C 
BRANCH 108 109
ATOM    109  N9  A   B  34       1.084 -14.819 -42.582  0.00  0.00    +0.000 N 
ATOM    110  C8  A   B  34       0.972 -13.991 -43.672  0.00  0.00    +0.000 A 
ATOM    111  N7  A   B  34      -0.059 -13.179 -43.610  0.00  0.00    +0.000 NA
ATOM    112  C5  A   B  34      -0.668 -13.495 -42.403  0.00  0.00    +0.000 A 
ATOM    113  C6  A   B  34      -1.809 -12.994 -41.752  0.00  0.00    +0.000 A 
ATOM    114  N6  A   B  34      -2.580 -12.018 -42.257  0.00  0.00    +0.000 N 
ATOM    115  N1  A   B  34      -2.141 -13.529 -40.559  0.00  0.00    +0.000 NA
ATOM    116  C2  A   B  34      -1.374 -14.504 -40.056  0.00  0.00    +0.000 A 
ATOM    117  N3  A   B  34      -0.278 -15.059 -40.570  0.00  0.00    +0.000 NA
ATOM    118  C4  A   B  34       0.025 -14.503 -41.759  0.00  0.00    +0.000 A 
ATOM    119  H   A   B  34      -2.356 -11.614 -43.126  0.00  0.00    +0.000 HD
ATOM    120  H   A   B  34      -3.370 -11.707 -41.758  0.00  0.00    +0.000 HD
ENDBRANCH 108 109
BRANCH 107 121
ATOM    121  O2' A   B  34       2.187 -18.203 -41.835  0.00  0.00    +0.000 OA
ATOM    122  H   A   B  34       3.153 -18.113 -41.849  0.00  0.00    +0.000 HD
ENDBRANCH 107 121
BRANCH 104 123
ATOM    123  C5' A   B  34       4.130 -16.198 -45.275  0.00  0.00    +0.000 C 
BRANCH 123 124
ATOM    124  O5' A   B  34       3.244 -15.324 -45.975  0.00  0.00    +0.000 OA
BRANCH 124 125
ATOM    125  P   A   B  34       3.758 -14.480 -47.227  0.00  0.00    +0.000 P 
ATOM    126  OP1 A   B  34       4.521 -15.384 -48.120  0.00  0.00    +0.000 OA
BRANCH 125 127
ATOM    127  OP2 A   B  34       2.603 -13.718 -47.769  0.00  0.00    +0.000 OA
ATOM    128  H   A   B  34       2.891 -13.195 -48.534  0.00  0.00    +0.000 HD
ENDBRANCH 125 127
BRANCH 125 129
ATOM    129  O3' U   B  33       4.804 -13.454 -46.560  0.00  0.00    +0.000 OA
BRANCH 129 132
ATOM    130  C4' U   B  33       5.208 -11.117 -45.948  0.00  0.00    +0.000 C 
ATOM    131  O4' U   B  33       4.865 -10.305 -44.793  0.00  0.00    +0.000 OA
ATOM    132  C3' U   B  33       4.324 -12.340 -45.808  0.00  0.00    +0.000 C 
ATOM    133  C2' U   B  33       4.346 -12.569 -44.300  0.00  0.00    +0.000 C 
ATOM    134  C1' U   B  33       4.309 -11.128 -43.780  0.00  0.00    +0.000 C 
BRANCH 134 135
ATOM    135  N1  U   B  33       2.931 -10.666 -43.485  0.00  0.00    +0.000 N 
ATOM    136  C2  U   B  33       2.403 -10.990 -42.242  0.00  0.00    +0.000 A 
ATOM    137  O2  U   B  33       3.022 -11.620 -41.398  0.00  0.00    +0.000 OA
ATOM    138  N3  U   B  33       1.119 -10.542 -42.016  0.00  0.00    +0.000 N 
ATOM    139  C4  U   B  33       0.327  -9.824 -42.889  0.00  0.00    +0.000 A 
ATOM    140  O4  U   B  33      -0.811  -9.493 -42.544  0.00  0.00    +0.000 OA
ATOM    141  C5  U   B  33       0.940  -9.535 -44.151  0.00  0.00    +0.000 A 
ATOM    142  C6  U   B  33       2.189  -9.956 -44.399  0.00  0.00    +0.000 A 
ATOM    143  H   U   B  33       0.726 -10.757 -41.140  0.00  0.00    +0.000 HD
ENDBRANCH 134 135
BRANCH 133 144
ATOM    144  O2' U   B  33       5.542 -13.194 -43.869  0.00  0.00    +0.000 OA
ATOM    145  H   U   B  33       6.304 -12.661 -44.147  0.00  0.00    +0.000 HD
ENDBRANCH 133 144
BRANCH 130 146
ATOM    146  C5' U   B  33       5.026 -10.316 -47.216  0.00  0.00    +0.000 C 
BRANCH 146 147
ATOM    147  O5' U   B  33       3.660  -9.959 -47.412  0.00  0.00    +0.000 OA
BRANCH 147 148
ATOM    148  P   U   B  33       3.230  -8.923 -48.550  0.00  0.00    +0.000 P 
ATOM    149  OP1 U   B  33       3.859  -9.345 -49.824  0.00  0.00    +0.000 OA
BRANCH 148 150
ATOM    150  OP2 U   B  33       1.754  -8.743 -48.479  0.00  0.00    +0.000 OA
ATOM    151  H   U   B  33       1.471  -8.116 -49.163  0.00  0.00    +0.000 HD
ENDBRANCH 148 150
BRANCH 148 152
ATOM    152  O3' A   B  32       3.942  -7.569 -48.079  0.00  0.00    +0.000 OA
BRANCH 152 155
ATOM    153  C4' A   B  32       3.619  -5.317 -47.187  0.00  0.00    +0.000 C 
ATOM    154  O4' A   B  32       3.510  -4.775 -45.846  0.00  0.00    +0.000 OA
ATOM    155  C3' A   B  32       3.409  -6.809 -46.996  0.00  0.00    +0.000 C 
ATOM    156  C2' A   B  32       4.120  -7.059 -45.671  0.00  0.00    +0.000 C 
ATOM    157  C1' A   B  32       3.759  -5.794 -44.891  0.00  0.00    +0.000 C 
BRANCH 157 158
ATOM    158  N9  A   B  32       2.556  -5.966 -44.057  0.00  0.00    +0.000 N 
ATOM    159  C8  A   B  32       1.267  -5.576 -44.334  0.00  0.00    +0.000 A 
ATOM    160  N7  A   B  32       0.413  -5.869 -43.378  0.00  0.00    +0.000 NA
ATOM    161  C5  A   B  32       1.187  -6.494 -42.408  0.00  0.00    +0.000 A 
ATOM    162  C6  A   B  32       0.878  -7.042 -41.150  0.00  0.00    +0.000 A 
ATOM    163  N6  A   B  32      -0.359  -7.050 -40.629  0.00  0.00    +0.000 N 
ATOM    164  N1  A   B  32       1.883  -7.590 -40.436  0.00  0.00    +0.000 NA
ATOM    165  C2  A   B  32       3.118  -7.586 -40.954  0.00  0.00    +0.000 A 
ATOM    166  N3  A   B  32       3.536  -7.100 -42.123  0.00  0.00    +0.000 NA
ATOM    167  C4  A   B  32       2.509  -6.561 -42.812  0.00  0.00    +0.000 A 
ATOM    168  H   A   B  32      -1.108  -6.656 -41.132  0.00  0.00    +0.000 HD
ATOM    169  H   A   B  32      -0.518  -7.450 -39.744  0.00  0.00    +0.000 HD
ENDBRANCH 157 158
BRANCH 156 170
ATOM    170  O2' A   B  32       5.527  -7.132 -45.824  0.00  0.00    +0.000 OA
ATOM    171  H   A   B  32       5.850  -6.317 -46.239  0.00  0.00    +0.000 HD
ENDBRANCH 156 170
BRANCH 153 172
ATOM    172  C5' A   B  32       2.633  -4.631 -48.103  0.00  0.00    +0.000 C 
BRANCH 172 173
ATOM    173  O5' A   B  32       1.291  -4.858 -47.674  0.00  0.00    +0.000 OA
BRANCH 173 174
ATOM    174  P   A   B  32       0.071  -4.077 -48.347  0.00  0.00    +0.000 P 
ATOM    175  OP1 A   B  32       0.197  -4.197 -49.817  0.00  0.00    +0.000 OA
BRANCH 174 176
ATOM    176  OP2 A   B  32      -1.183  -4.520 -47.675  0.00  0.00    +0.000 OA
ATOM    177  H   A   B  32      -1.941  -4.058 -48.067  0.00  0.00    +0.000 HD
ENDBRANCH 174 176
BRANCH 174 178
ATOM    178  O3' A   B  31       0.360  -2.553 -47.959  0.00  0.00    +0.000 OA
BRANCH 178 181
ATOM    179  C4' A   B  31      -0.229  -0.610 -46.594  0.00  0.00    +0.000 C 
ATOM    180  O4' A   B  31       0.059  -0.221 -45.227  0.00  0.00    +0.000 OA
ATOM    181  C3' A   B  31       0.120  -2.087 -46.634  0.00  0.00    +0.000 C 
ATOM    182  C2' A   B  31       1.359  -2.137 -45.744  0.00  0.00    +0.000 C 
ATOM    183  C1' A   B  31       0.983  -1.131 -44.653  0.00  0.00    +0.000 C 
BRANCH 183 184
ATOM    184  N9  A   B  31       0.361  -1.776 -43.482  0.00  0.00    +0.000 N 
ATOM    185  C8  A   B  31      -0.972  -1.832 -43.151  0.00  0.00    +0.000 A 
ATOM    186  N7  A   B  31      -1.208  -2.484 -42.034  0.00  0.00    +0.000 NA
ATOM    187  C5  A   B  31       0.050  -2.885 -41.601  0.00  0.00    +0.000 A 
ATOM    188  C6  A   B  31       0.485  -3.613 -40.480  0.00  0.00    +0.000 A 
ATOM    189  N6  A   B  31      -0.344  -4.095 -39.544  0.00  0.00    +0.000 N 
ATOM    190  N1  A   B  31       1.811  -3.840 -40.348  0.00  0.00    +0.000 NA
ATOM    191  C2  A   B  31       2.642  -3.363 -41.283  0.00  0.00    +0.000 A 
ATOM    192  N3  A   B  31       2.356  -2.661 -42.380  0.00  0.00    +0.000 NA
ATOM    193  C4  A   B  31       1.026  -2.455 -42.483  0.00  0.00    +0.000 A 
ATOM    194  H   A   B  31      -1.314  -3.942 -39.619  0.00  0.00    +0.000 HD
ATOM    195  H   A   B  31       0.017  -4.602 -38.781  0.00  0.00    +0.000 HD
ENDBRANCH 183 184
BRANCH 182 196
ATOM    196  O2' A   B  31       2.521  -1.691 -46.416  0.00  0.00    +0.000 OA
ATOM    197  H   A   B  31       2.376  -0.793 -46.752  0.00  0.00    +0.000 HD
ENDBRANCH 182 196
BRANCH 179 198
ATOM    198  C5' A   B  31      -1.659  -0.260 -46.943  0.00  0.00    +0.000 C 
BRANCH 198 199
ATOM    199  O5' A   B  31      -2.578  -0.891 -46.049  0.00  0.00    +0.000 OA
BRANCH 199 200
ATOM    200  P   A   B  31      -4.119  -0.467 -46.022  0.00  0.00    +0.000 P 
ATOM    201  OP1 A   B  31      -4.623  -0.456 -47.413  0.00  0.00    +0.000 OA
BRANCH 200 202
ATOM    202  OP2 A   B  31      -4.804  -1.302 -44.997  0.00  0.00    +0.000 OA
ATOM    203  H   A   B  31      -4.836  -2.223 -45.299  0.00  0.00    +0.000 HD
ENDBRANCH 200 202
BRANCH 200 204
ATOM    204  O3' A   B  30      -4.074   1.048 -45.509  0.00  0.00    +0.000 OA
BRANCH 204 207
ATOM    205  C4' A   B  30      -4.430   2.644 -43.686  0.00  0.00    +0.000 C 
ATOM    206  O4' A   B  30      -3.664   3.005 -42.507  0.00  0.00    +0.000 OA
ATOM    207  C3' A   B  30      -3.798   1.342 -44.145  0.00  0.00    +0.000 C 
ATOM    208  C2' A   B  30      -2.321   1.606 -43.870  0.00  0.00    +0.000 C 
ATOM    209  C1' A   B  30      -2.397   2.369 -42.547  0.00  0.00    +0.000 C 
BRANCH 209 210
ATOM    210  N9  A   B  30      -2.273   1.476 -41.381  0.00  0.00    +0.000 N 
ATOM    211  C8  A   B  30      -3.271   0.975 -40.580  0.00  0.00    +0.000 A 
ATOM    212  N7  A   B  30      -2.831   0.195 -39.617  0.00  0.00    +0.000 NA
ATOM    213  C5  A   B  30      -1.453   0.179 -39.796  0.00  0.00    +0.000 A 
ATOM    214  C6  A   B  30      -0.411  -0.460 -39.105  0.00  0.00    +0.000 A 
ATOM    215  N6  A   B  30      -0.607  -1.251 -38.042  0.00  0.00    +0.000 N 
ATOM    216  N1  A   B  30       0.851  -0.268 -39.544  0.00  0.00    +0.000 NA
ATOM    217  C2  A   B  30       1.048   0.518 -40.610  0.00  0.00    +0.000 A 
ATOM    218  N3  A   B  30       0.151   1.179 -41.344  0.00  0.00    +0.000 NA
ATOM    219  C4  A   B  30      -1.096   0.965 -40.879  0.00  0.00    +0.000 A 
ATOM    220  H   A   B  30      -1.519  -1.405 -37.705  0.00  0.00    +0.000 HD
ATOM    221  H   A   B  30       0.161  -1.678 -37.598  0.00  0.00    +0.000 HD
ENDBRANCH 209 210
BRANCH 208 222
ATOM    222  O2' A   B  30      -1.730   2.428 -44.855  0.00  0.00    +0.000 OA
ATOM    223  H   A   B  30      -2.221   3.262 -44.917  0.00  0.00    +0.000 HD
ENDBRANCH 208 222
BRANCH 205 224
ATOM    224  C5' A   B  30      -5.906   2.586 -43.349  0.00  0.00    +0.000 C 
BRANCH 224 225
ATOM    225  O5' A   B  30      -6.161   1.652 -42.298  0.00  0.00    +0.000 OA
BRANCH 225 226
ATOM    226  P   A   B  30      -7.573   1.621 -41.548  0.00  0.00    +0.000 P 
ATOM    227  OP1 A   B  30      -8.642   1.629 -42.572  0.00  0.00    +0.000 OA
BRANCH 226 228
ATOM    228  OP2 A   B  30      -7.528   0.531 -40.540  0.00  0.00    +0.000 OA
ATOM    229  H   A   B  30      -7.502  -0.327 -40.992  0.00  0.00    +0.000 HD
ENDBRANCH 226 228
BRANCH 226 230
ATOM    230  O3' A   B  29      -7.615   3.030 -40.785  0.00  0.00    +0.000 OA
BRANCH 230 233
ATOM    231  C4' A   B  29      -7.454   4.250 -38.666  0.00  0.00    +0.000 C 
ATOM    232  O4' A   B  29      -6.340   4.703 -37.852  0.00  0.00    +0.000 OA
ATOM    233  C3' A   B  29      -6.824   3.251 -39.623  0.00  0.00    +0.000 C 
ATOM    234  C2' A   B  29      -5.483   3.916 -39.922  0.00  0.00    +0.000 C 
ATOM    235  C1' A   B  29      -5.123   4.492 -38.550  0.00  0.00    +0.000 C 
BRANCH 235 236
ATOM    236  N9  A   B  29      -4.277   3.578 -37.764  0.00  0.00    +0.000 N 
ATOM    237  C8  A   B  29      -4.652   2.717 -36.762  0.00  0.00    +0.000 A 
ATOM    238  N7  A   B  29      -3.651   2.033 -36.255  0.00  0.00    +0.000 NA
ATOM    239  C5  A   B  29      -2.543   2.469 -36.970  0.00  0.00    +0.000 A 
ATOM    240  C6  A   B  29      -1.181   2.132 -36.914  0.00  0.00    +0.000 A 
ATOM    241  N6  A   B  29      -0.679   1.228 -36.062  0.00  0.00    +0.000 N 
ATOM    242  N1  A   B  29      -0.342   2.753 -37.769  0.00  0.00    +0.000 NA
ATOM    243  C2  A   B  29      -0.843   3.654 -38.623  0.00  0.00    +0.000 A 
ATOM    244  N3  A   B  29      -2.104   4.061 -38.769  0.00  0.00    +0.000 NA
ATOM    245  C4  A   B  29      -2.915   3.421 -37.903  0.00  0.00    +0.000 A 
ATOM    246  H   A   B  29       0.285   1.030 -36.066  0.00  0.00    +0.000 HD
ATOM    247  H   A   B  29      -1.275   0.761 -35.432  0.00  0.00    +0.000 HD
ENDBRANCH 235 236
BRANCH 234 248
ATOM    248  O2' A   B  29      -5.605   4.972 -40.857  0.00  0.00    +0.000 OA
ATOM    249  H   A   B  29      -6.246   5.622 -40.529  0.00  0.00    +0.000 HD
ENDBRANCH 234 248
BRANCH 231 250
ATOM    250  C5' A   B  29      -8.560   3.715 -37.781  0.00  0.00    +0.000 C 
BRANCH 250 251
ATOM    251  O5' A   B  29      -8.113   2.598 -37.014  0.00  0.00    +0.000 OA
BRANCH 251 252
ATOM    252  P   A   B  29      -9.021   1.988 -35.846  0.00  0.00    +0.000 P 
ATOM    253  OP1 A   B  29     -10.400   1.834 -36.361  0.00  0.00    +0.000 OA
BRANCH 252 254
ATOM    254  OP2 A   B  29      -8.307   0.812 -35.281  0.00  0.00    +0.000 OA
ATOM    255  H   A   B  29      -8.295   0.096 -35.935  0.00  0.00    +0.000 HD
ENDBRANCH 252 254
BRANCH 252 256
ATOM    256  O3' U   B  28      -9.026   3.152 -34.747  0.00  0.00    +0.000 OA
BRANCH 256 259
ATOM    257  C4' U   B  28      -8.212   3.959 -32.583  0.00  0.00    +0.000 C 
ATOM    258  O4' U   B  28      -6.989   4.618 -32.151  0.00  0.00    +0.000 OA
ATOM    259  C3' U   B  28      -7.871   3.423 -33.962  0.00  0.00    +0.000 C 
ATOM    260  C2' U   B  28      -7.005   4.544 -34.525  0.00  0.00    +0.000 C 
ATOM    261  C1' U   B  28      -6.205   4.957 -33.282  0.00  0.00    +0.000 C 
BRANCH 261 262
ATOM    262  N1  U   B  28      -4.900   4.260 -33.190  0.00  0.00    +0.000 N 
ATOM    263  C2  U   B  28      -3.846   4.782 -33.927  0.00  0.00    +0.000 A 
ATOM    264  O2  U   B  28      -3.955   5.775 -34.631  0.00  0.00    +0.000 OA
ATOM    265  N3  U   B  28      -2.653   4.101 -33.810  0.00  0.00    +0.000 N 
ATOM    266  C4  U   B  28      -2.415   2.972 -33.053  0.00  0.00    +0.000 A 
ATOM    267  O4  U   B  28      -1.289   2.470 -33.050  0.00  0.00    +0.000 OA
ATOM    268  C5  U   B  28      -3.554   2.490 -32.325  0.00  0.00    +0.000 A 
ATOM    269  C6  U   B  28      -4.727   3.134 -32.416  0.00  0.00    +0.000 A 
ATOM    270  H   U   B  28      -1.890   4.458 -34.320  0.00  0.00    +0.000 HD
ENDBRANCH 261 262
BRANCH 260 271
ATOM    271  O2' U   B  28      -7.775   5.643 -34.973  0.00  0.00    +0.000 OA
ATOM    272  H   U   B  28      -8.328   5.968 -34.245  0.00  0.00    +0.000 HD
ENDBRANCH 260 271
BRANCH 257 273
ATOM    273  C5' U   B  28      -8.634   2.928 -31.558  0.00  0.00    +0.000 C 
BRANCH 273 274
ATOM    274  O5' U   B  28      -7.641   1.919 -31.394  0.00  0.00    +0.000 OA
BRANCH 274 275
ATOM    275  P   U   B  28      -7.733   0.851 -30.209  0.00  0.00    +0.000 P 
ATOM    276  OP2 U   B  28      -6.579  -0.074 -30.338  0.00  0.00    +0.000 OA
BRANCH 275 277
ATOM    277  OP1 U   B  28      -9.110   0.311 -30.173  0.00  0.00    +0.000 OA
ATOM    278  H   U   B  28      -9.264  -0.235 -30.960  0.00  0.00    +0.000 HD
ENDBRANCH 275 277
BRANCH 275 279
ATOM    279  O3' U   B  27      -7.515   1.748 -28.893  0.00  0.00    +0.000 OA
BRANCH 279 282
ATOM    280  C4' U   B  27      -6.025   2.404 -27.067  0.00  0.00    +0.000 C 
ATOM    281  O4' U   B  27      -4.962   3.389 -26.941  0.00  0.00    +0.000 OA
ATOM    282  C3' U   B  27      -6.233   2.277 -28.567  0.00  0.00    +0.000 C 
ATOM    283  C2' U   B  27      -6.039   3.715 -29.034  0.00  0.00    +0.000 C 
ATOM    284  C1' U   B  27      -4.898   4.178 -28.114  0.00  0.00    +0.000 C 
BRANCH 284 285
ATOM    285  N1  U   B  27      -3.560   4.011 -28.732  0.00  0.00    +0.000 N 
ATOM    286  C2  U   B  27      -3.139   4.990 -29.621  0.00  0.00    +0.000 A 
ATOM    287  O2  U   B  27      -3.817   5.962 -29.912  0.00  0.00    +0.000 OA
ATOM    288  N3  U   B  27      -1.887   4.792 -30.159  0.00  0.00    +0.000 N 
ATOM    289  C4  U   B  27      -1.035   3.736 -29.909  0.00  0.00    +0.000 A 
ATOM    290  O4  U   B  27       0.062   3.695 -30.471  0.00  0.00    +0.000 OA
ATOM    291  C5  U   B  27      -1.543   2.766 -28.984  0.00  0.00    +0.000 A 
ATOM    292  C6  U   B  27      -2.758   2.933 -28.442  0.00  0.00    +0.000 A 
ATOM    293  H   U   B  27      -1.566   5.477 -30.789  0.00  0.00    +0.000 HD
ENDBRANCH 284 285
BRANCH 283 294
ATOM    294  O2' U   B  27      -7.184   4.512 -28.796  0.00  0.00    +0.000 OA
ATOM    295  H   U   B  27      -7.408   4.482 -27.853  0.00  0.00    +0.000 HD
ENDBRANCH 283 294
BRANCH 280 296
ATOM    296  C5' U   B  27      -5.635   1.130 -26.347  0.00  0.00    +0.000 C 
BRANCH 296 297
ATOM    297  O5' U   B  27      -4.449   0.567 -26.900  0.00  0.00    +0.000 OA
BRANCH 297 298
ATOM    298  P   U   B  27      -3.705  -0.655 -26.192  0.00  0.00    +0.000 P 
ATOM    299  OP2 U   B  27      -2.532  -1.020 -27.025  0.00  0.00    +0.000 OA
BRANCH 298 300
ATOM    300  OP1 U   B  27      -4.716  -1.683 -25.854  0.00  0.00    +0.000 OA
ATOM    301  H   U   B  27      -5.056  -2.083 -26.670  0.00  0.00    +0.000 HD
ENDBRANCH 298 300
BRANCH 298 302
ATOM    302  O3' U   B  26      -3.167  -0.016 -24.814  0.00  0.00    +0.000 OA
BRANCH 302 305
ATOM    303  C4' U   B  26      -1.276   0.815 -23.500  0.00  0.00    +0.000 C 
ATOM    304  O4' U   B  26      -0.549   2.075 -23.466  0.00  0.00    +0.000 OA
ATOM    305  C3' U   B  26      -2.051   0.871 -24.805  0.00  0.00    +0.000 C 
ATOM    306  C2' U   B  26      -2.450   2.340 -24.868  0.00  0.00    +0.000 C 
ATOM    307  C1' U   B  26      -1.193   3.019 -24.301  0.00  0.00    +0.000 C 
BRANCH 307 308
ATOM    308  N1  U   B  26      -0.248   3.447 -25.360  0.00  0.00    +0.000 N 
ATOM    309  C2  U   B  26      -0.514   4.646 -26.008  0.00  0.00    +0.000 A 
ATOM    310  O2  U   B  26      -1.477   5.346 -25.746  0.00  0.00    +0.000 OA
ATOM    311  N3  U   B  26       0.398   5.003 -26.978  0.00  0.00    +0.000 N 
ATOM    312  C4  U   B  26       1.517   4.295 -27.361  0.00  0.00    +0.000 A 
ATOM    313  O4  U   B  26       2.242   4.744 -28.252  0.00  0.00    +0.000 OA
ATOM    314  C5  U   B  26       1.720   3.067 -26.648  0.00  0.00    +0.000 A 
ATOM    315  C6  U   B  26       0.852   2.696 -25.698  0.00  0.00    +0.000 A 
ATOM    316  H   U   B  26       0.233   5.853 -27.446  0.00  0.00    +0.000 HD
ENDBRANCH 307 308
BRANCH 306 317
ATOM    317  O2' U   B  26      -3.554   2.630 -24.029  0.00  0.00    +0.000 OA
ATOM    318  H   U   B  26      -3.346   2.368 -23.119  0.00  0.00    +0.000 HD
ENDBRANCH 306 317
BRANCH 303 319
ATOM    319  C5' U   B  26      -0.311  -0.343 -23.357  0.00  0.00    +0.000 C 
BRANCH 319 320
ATOM    320  O5' U   B  26       0.657  -0.342 -24.404  0.00  0.00    +0.000 OA
BRANCH 320 321
ATOM    321  P   U   B  26       1.949  -1.272 -24.332  0.00  0.00    +0.000 P 
ATOM    322  OP2 U   B  26       2.743  -1.048 -25.565  0.00  0.00    +0.000 OA
BRANCH 321 323
ATOM    323  OP1 U   B  26       1.515  -2.642 -23.974  0.00  0.00    +0.000 OA
ATOM    324  H   U   B  26       1.018  -3.027 -24.713  0.00  0.00    +0.000 HD
ENDBRANCH 321 323
BRANCH 321 325
ATOM    325  O3' U   B  25       2.770  -0.669 -23.079  0.00  0.00    +0.000 OA
BRANCH 325 328
ATOM    326  C4' U   B  25       4.719   0.601 -22.317  0.00  0.00    +0.000 C 
ATOM    327  O4' U   B  25       5.009   2.021 -22.186  0.00  0.00    +0.000 OA
ATOM    328  C3' U   B  25       3.487   0.557 -23.202  0.00  0.00    +0.000 C 
ATOM    329  C2' U   B  25       2.704   1.767 -22.706  0.00  0.00    +0.000 C 
ATOM    330  C1' U   B  25       3.837   2.772 -22.446  0.00  0.00    +0.000 C 
BRANCH 330 331
ATOM    331  N1  U   B  25       4.084   3.665 -23.604  0.00  0.00    +0.000 N 
ATOM    332  C2  U   B  25       3.260   4.774 -23.744  0.00  0.00    +0.000 A 
ATOM    333  O2  U   B  25       2.360   5.036 -22.965  0.00  0.00    +0.000 OA
ATOM    334  N3  U   B  25       3.534   5.575 -24.833  0.00  0.00    +0.000 N 
ATOM    335  C4  U   B  25       4.519   5.379 -25.776  0.00  0.00    +0.000 A 
ATOM    336  O4  U   B  25       4.642   6.186 -26.700  0.00  0.00    +0.000 OA
ATOM    337  C5  U   B  25       5.324   4.210 -25.564  0.00  0.00    +0.000 A 
ATOM    338  C6  U   B  25       5.084   3.414 -24.514  0.00  0.00    +0.000 A 
ATOM    339  H   U   B  25       2.966   6.371 -24.949  0.00  0.00    +0.000 HD
ENDBRANCH 330 331
BRANCH 329 340
ATOM    340  O2' U   B  25       2.028   1.501 -21.488  0.00  0.00    +0.000 OA
ATOM    341  H   U   B  25       2.667   1.205 -20.821  0.00  0.00    +0.000 HD
ENDBRANCH 329 340
BRANCH 326 342
ATOM    342  C5' U   B  25       5.937  -0.127 -22.849  0.00  0.00    +0.000 C 
BRANCH 342 343
ATOM    343  O5' U   B  25       6.307   0.358 -24.136  0.00  0.00    +0.000 OA
BRANCH 343 344
ATOM    344  P   U   B  25       7.700  -0.046 -24.798  0.00  0.00    +0.000 P 
ATOM    345  OP2 U   B  25       7.777   0.604 -26.130  0.00  0.00    +0.000 OA
BRANCH 344 346
ATOM    346  OP1 U   B  25       7.855  -1.518 -24.686  0.00  0.00    +0.000 OA
ATOM    347  H   U   B  25       7.209  -1.956 -25.262  0.00  0.00    +0.000 HD
ENDBRANCH 344 346
BRANCH 344 348
ATOM    348  O3' U   B  24       8.790   0.641 -23.828  0.00  0.00    +0.000 OA
BRANCH 348 351
ATOM    349  C4' U   B  24      10.429   2.434 -23.546  0.00  0.00    +0.000 C 
ATOM    350  O4' U   B  24      10.340   3.825 -23.126  0.00  0.00    +0.000 OA
ATOM    351  C3' U   B  24       8.994   2.052 -23.858  0.00  0.00    +0.000 C 
ATOM    352  C2' U   B  24       8.228   2.792 -22.768  0.00  0.00    +0.000 C 
ATOM    353  C1' U   B  24       9.024   4.102 -22.677  0.00  0.00    +0.000 C 
BRANCH 353 354
ATOM    354  N1  U   B  24       8.448   5.181 -23.515  0.00  0.00    +0.000 N 
ATOM    355  C2  U   B  24       7.366   5.885 -23.001  0.00  0.00    +0.000 A 
ATOM    356  O2  U   B  24       6.883   5.652 -21.907  0.00  0.00    +0.000 OA
ATOM    357  N3  U   B  24       6.874   6.879 -23.818  0.00  0.00    +0.000 N 
ATOM    358  C4  U   B  24       7.338   7.229 -25.068  0.00  0.00    +0.000 A 
ATOM    359  O4  U   B  24       6.787   8.147 -25.682  0.00  0.00    +0.000 OA
ATOM    360  C5  U   B  24       8.452   6.455 -25.530  0.00  0.00    +0.000 A 
ATOM    361  C6  U   B  24       8.956   5.482 -24.757  0.00  0.00    +0.000 A 
ATOM    362  H   U   B  24       6.110   7.394 -23.472  0.00  0.00    +0.000 HD
ENDBRANCH 353 354
BRANCH 352 363
ATOM    363  O2' U   B  24       8.293   2.124 -21.520  0.00  0.00    +0.000 OA
ATOM    364  H   U   B  24       9.221   2.002 -21.266  0.00  0.00    +0.000 HD
ENDBRANCH 352 363
BRANCH 349 365
ATOM    365  C5' U   B  24      11.409   2.304 -24.693  0.00  0.00    +0.000 C 
BRANCH 365 366
ATOM    366  O5' U   B  24      10.985   3.062 -25.823  0.00  0.00    +0.000 OA
BRANCH 366 367
ATOM    367  P   U   B  24      11.935   3.257 -27.089  0.00  0.00    +0.000 P 
ATOM    368  OP2 U   B  24      11.199   4.066 -28.093  0.00  0.00    +0.000 OA
BRANCH 367 369
ATOM    369  OP1 U   B  24      12.479   1.930 -27.468  0.00  0.00    +0.000 OA
ATOM    370  H   U   B  24      13.061   2.027 -28.238  0.00  0.00    +0.000 HD
ENDBRANCH 367 369
BRANCH 367 371
ATOM    371  O3' U   B  23      13.156   4.134 -26.508  0.00  0.00    +0.000 OA
BRANCH 371 374
ATOM    372  C4' U   B  23      14.213   6.339 -26.392  0.00  0.00    +0.000 C 
ATOM    373  O4' U   B  23      13.978   7.527 -25.583  0.00  0.00    +0.000 OA
ATOM    374  C3' U   B  23      12.957   5.510 -26.196  0.00  0.00    +0.000 C 
ATOM    375  C2' U   B  23      12.649   5.752 -24.725  0.00  0.00    +0.000 C 
ATOM    376  C1' U   B  23      13.013   7.236 -24.584  0.00  0.00    +0.000 C 
BRANCH 376 377
ATOM    377  N1  U   B  23      11.844   8.128 -24.771  0.00  0.00    +0.000 N 
ATOM    378  C2  U   B  23      10.982   8.286 -23.692  0.00  0.00    +0.000 A 
ATOM    379  O2  U   B  23      11.151   7.730 -22.621  0.00  0.00    +0.000 OA
ATOM    380  N3  U   B  23       9.912   9.124 -23.917  0.00  0.00    +0.000 N 
ATOM    381  C4  U   B  23       9.620   9.800 -25.081  0.00  0.00    +0.000 A 
ATOM    382  O4  U   B  23       8.617  10.518 -25.127  0.00  0.00    +0.000 OA
ATOM    383  C5  U   B  23      10.552   9.582 -26.147  0.00  0.00    +0.000 A 
ATOM    384  C6  U   B  23      11.606   8.773 -25.960  0.00  0.00    +0.000 A 
ATOM    385  H   U   B  23       9.289   9.254 -23.165  0.00  0.00    +0.000 HD
ENDBRANCH 376 377
BRANCH 375 386
ATOM    386  O2' U   B  23      13.483   4.987 -23.872  0.00  0.00    +0.000 OA
ATOM    387  H   U   B  23      14.413   5.183 -24.068  0.00  0.00    +0.000 HD
ENDBRANCH 375 386
BRANCH 372 388
ATOM    388  C5' U   B  23      14.523   6.740 -27.814  0.00  0.00    +0.000 C 
BRANCH 388 389
ATOM    389  O5' U   B  23      13.415   7.413 -28.413  0.00  0.00    +0.000 OA
BRANCH 389 390
ATOM    390  P   U   B  23      13.555   8.131 -29.830  0.00  0.00    +0.000 P 
ATOM    391  OP1 U   B  23      14.201   7.180 -30.766  0.00  0.00    +0.000 OA
BRANCH 390 392
ATOM    392  OP2 U   B  23      12.237   8.725 -30.172  0.00  0.00    +0.000 OA
ATOM    393  H   U   B  23      12.296   9.169 -31.032  0.00  0.00    +0.000 HD
ENDBRANCH 390 392
BRANCH 390 394
ATOM    394  O3' C   B  22      14.602   9.318 -29.539  0.00  0.00    +0.000 OA
BRANCH 394 397
ATOM    395  C4' C   B  22      14.872  11.736 -29.295  0.00  0.00    +0.000 C 
ATOM    396  O4' C   B  22      14.730  12.657 -28.180  0.00  0.00    +0.000 OA
ATOM    397  C3' C   B  22      14.184  10.473 -28.815  0.00  0.00    +0.000 C 
ATOM    398  C2' C   B  22      14.583  10.438 -27.345  0.00  0.00    +0.000 C 
ATOM    399  C1' C   B  22      14.518  11.927 -26.982  0.00  0.00    +0.000 C 
BRANCH 399 400
ATOM    400  N1  C   B  22      13.207  12.317 -26.402  0.00  0.00    +0.000 N 
ATOM    401  C2  C   B  22      12.964  12.046 -25.049  0.00  0.00    +0.000 A 
ATOM    402  O2  C   B  22      13.844  11.492 -24.372  0.00  0.00    +0.000 OA
ATOM    403  N3  C   B  22      11.769  12.397 -24.507  0.00  0.00    +0.000 NA
ATOM    404  C4  C   B  22      10.840  12.992 -25.258  0.00  0.00    +0.000 A 
ATOM    405  N4  C   B  22       9.679  13.319 -24.677  0.00  0.00    +0.000 N 
ATOM    406  C5  C   B  22      11.062  13.275 -26.634  0.00  0.00    +0.000 A 
ATOM    407  C6  C   B  22      12.246  12.925 -27.160  0.00  0.00    +0.000 A 
ATOM    408  H   C   B  22       8.972  13.759 -25.203  0.00  0.00    +0.000 HD
ATOM    409  H   C   B  22       9.532  13.119 -23.724  0.00  0.00    +0.000 HD
ENDBRANCH 399 400
BRANCH 398 410
ATOM    410  O2' C   B  22      15.909   9.971 -27.161  0.00  0.00    +0.000 OA
ATOM    411  H   C   B  22      16.521  10.525 -27.671  0.00  0.00    +0.000 HD
ENDBRANCH 398 410
BRANCH 395 412
ATOM    412  C5' C   B  22      14.300  12.354 -30.550  0.00  0.00    +0.000 C 
BRANCH 412 413
ATOM    413  O5' C   B  22      12.903  12.613 -30.408  0.00  0.00    +0.000 OA
BRANCH 413 414
ATOM    414  P   C   B  22      12.106  13.470 -31.493  0.00  0.00    +0.000 P 
ATOM    415  OP1 C   B  22      12.402  12.905 -32.832  0.00  0.00    +0.000 OA
BRANCH 414 416
ATOM    416  OP2 C   B  22      10.695  13.589 -31.034  0.00  0.00    +0.000 OA
ATOM    417  H   C   B  22      10.188  14.107 -31.678  0.00  0.00    +0.000 HD
ENDBRANCH 414 416
BRANCH 414 418
ATOM    418  O3' A   B  21      12.805  14.913 -31.421  0.00  0.00    +0.000 OA
BRANCH 418 421
ATOM    419  C4' A   B  21      12.603  17.240 -30.700  0.00  0.00    +0.000 C 
ATOM    420  O4' A   B  21      12.812  17.920 -29.435  0.00  0.00    +0.000 OA
ATOM    421  C3' A   B  21      12.545  15.772 -30.318  0.00  0.00    +0.000 C 
ATOM    422  C2' A   B  21      13.613  15.697 -29.233  0.00  0.00    +0.000 C 
ATOM    423  C1' A   B  21      13.394  17.024 -28.506  0.00  0.00    +0.000 C 
BRANCH 423 424
ATOM    424  N9  A   B  21      12.495  16.884 -27.347  0.00  0.00    +0.000 N 
ATOM    425  C8  A   B  21      11.177  17.259 -27.241  0.00  0.00    +0.000 A 
ATOM    426  N7  A   B  21      10.648  16.994 -26.067  0.00  0.00    +0.000 NA
ATOM    427  C5  A   B  21      11.684  16.404 -25.354  0.00  0.00    +0.000 A 
ATOM    428  C6  A   B  21      11.770  15.895 -24.048  0.00  0.00    +0.000 A 
ATOM    429  N6  A   B  21      10.744  15.898 -23.185  0.00  0.00    +0.000 N 
ATOM    430  N1  A   B  21      12.951  15.375 -23.650  0.00  0.00    +0.000 NA
ATOM    431  C2  A   B  21      13.974  15.368 -24.512  0.00  0.00    +0.000 A 
ATOM    432  N3  A   B  21      14.019  15.820 -25.765  0.00  0.00    +0.000 NA
ATOM    433  C4  A   B  21      12.827  16.331 -26.130  0.00  0.00    +0.000 A 
ATOM    434  H   A   B  21       9.875  16.272 -23.455  0.00  0.00    +0.000 HD
ATOM    435  H   A   B  21      10.860  15.526 -22.281  0.00  0.00    +0.000 HD
ENDBRANCH 423 424
BRANCH 422 436
ATOM    436  O2' A   B  21      14.922  15.668 -29.771  0.00  0.00    +0.000 OA
ATOM    437  H   A   B  21      15.058  16.446 -30.334  0.00  0.00    +0.000 HD
ENDBRANCH 422 436
BRANCH 419 438
ATOM    438  C5' A   B  21      11.376  17.791 -31.389  0.00  0.00    +0.000 C 
BRANCH 438 439
ATOM    439  O5' A   B  21      10.220  17.674 -30.559  0.00  0.00    +0.000 OA
BRANCH 439 440
ATOM    440  P   A   B  21       8.858  18.415 -30.953  0.00  0.00    +0.000 P 
ATOM    441  OP1 A   B  21       8.552  18.099 -32.368  0.00  0.00    +0.000 OA
BRANCH 440 442
ATOM    442  OP2 A   B  21       7.855  18.112 -29.898  0.00  0.00    +0.000 OA
ATOM    443  H   A   B  21       7.017  18.551 -30.113  0.00  0.00    +0.000 HD
ENDBRANCH 440 442
BRANCH 440 444
ATOM    444  O3' A   B  20       9.240  19.974 -30.893  0.00  0.00    +0.000 OA
BRANCH 444 447
ATOM    445  C4' A   B  20       9.142  22.084 -29.648  0.00  0.00    +0.000 C 
ATOM    446  O4' A   B  20       9.853  22.597 -28.488  0.00  0.00    +0.000 OA
ATOM    447  C3' A   B  20       9.449  20.598 -29.632  0.00  0.00    +0.000 C 
ATOM    448  C2' A   B  20      10.907  20.595 -29.193  0.00  0.00    +0.000 C 
ATOM    449  C1' A   B  20      10.898  21.705 -28.143  0.00  0.00    +0.000 C 
BRANCH 449 450
ATOM    450  N9  A   B  20      10.651  21.176 -26.791  0.00  0.00    +0.000 N 
ATOM    451  C8  A   B  20       9.479  21.190 -26.071  0.00  0.00    +0.000 A 
ATOM    452  N7  A   B  20       9.584  20.625 -24.889  0.00  0.00    +0.000 NA
ATOM    453  C5  A   B  20      10.909  20.210 -24.827  0.00  0.00    +0.000 A 
ATOM    454  C6  A   B  20      11.653  19.545 -23.840  0.00  0.00    +0.000 A 
ATOM    455  N6  A   B  20      11.137  19.158 -22.665  0.00  0.00    +0.000 N 
ATOM    456  N1  A   B  20      12.951  19.280 -24.097  0.00  0.00    +0.000 NA
ATOM    457  C2  A   B  20      13.465  19.660 -25.273  0.00  0.00    +0.000 A 
ATOM    458  N3  A   B  20      12.870  20.295 -26.282  0.00  0.00    +0.000 NA
ATOM    459  C4  A   B  20      11.576  20.543 -25.993  0.00  0.00    +0.000 A 
ATOM    460  H   A   B  20      10.192  19.342 -22.458  0.00  0.00    +0.000 HD
ATOM    461  H   A   B  20      11.703  18.690 -22.009  0.00  0.00    +0.000 HD
ENDBRANCH 449 450
BRANCH 448 462
ATOM    462  O2' A   B  20      11.785  20.949 -30.242  0.00  0.00    +0.000 OA
ATOM    463  H   A   B  20      11.534  21.817 -30.595  0.00  0.00    +0.000 HD
ENDBRANCH 448 462
BRANCH 445 464
ATOM    464  C5' A   B  20       7.679  22.460 -29.563  0.00  0.00    +0.000 C 
BRANCH 464 465
ATOM    465  O5' A   B  20       7.089  21.985 -28.352  0.00  0.00    +0.000 OA
BRANCH 465 466
ATOM    466  P   A   B  20       5.672  22.539 -27.870  0.00  0.00    +0.000 P 
ATOM    467  OP1 A   B  20       4.740  22.492 -29.022  0.00  0.00    +0.000 OA
BRANCH 466 468
ATOM    468  OP2 A   B  20       5.317  21.835 -26.608  0.00  0.00    +0.000 OA
ATOM    469  H   A   B  20       5.138  20.901 -26.798  0.00  0.00    +0.000 HD
ENDBRANCH 466 468
BRANCH 466 470
ATOM    470  O3' A   B  19       5.967  24.088 -27.541  0.00  0.00    +0.000 OA
BRANCH 470 473
ATOM    471  C4' A   B  19       6.252  25.807 -25.820  0.00  0.00    +0.000 C 
ATOM    472  O4' A   B  19       7.366  26.209 -24.981  0.00  0.00    +0.000 OA
ATOM    473  C3' A   B  19       6.672  24.450 -26.359  0.00  0.00    +0.000 C 
ATOM    474  C2' A   B  19       8.166  24.658 -26.589  0.00  0.00    +0.000 C 
ATOM    475  C1' A   B  19       8.533  25.507 -25.372  0.00  0.00    +0.000 C 
BRANCH 475 476
ATOM    476  N9  A   B  19       8.993  24.689 -24.240  0.00  0.00    +0.000 N 
ATOM    477  C8  A   B  19       8.295  24.327 -23.115  0.00  0.00    +0.000 A 
ATOM    478  N7  A   B  19       8.990  23.586 -22.282  0.00  0.00    +0.000 NA
ATOM    479  C5  A   B  19      10.227  23.449 -22.901  0.00  0.00    +0.000 A 
ATOM    480  C6  A   B  19      11.405  22.780 -22.533  0.00  0.00    +0.000 A 
ATOM    481  N6  A   B  19      11.533  22.085 -21.394  0.00  0.00    +0.000 N 
ATOM    482  N1  A   B  19      12.456  22.841 -23.376  0.00  0.00    +0.000 NA
ATOM    483  C2  A   B  19      12.328  23.531 -24.518  0.00  0.00    +0.000 A 
ATOM    484  N3  A   B  19      11.274  24.205 -24.975  0.00  0.00    +0.000 NA
ATOM    485  C4  A   B  19      10.243  24.123 -24.108  0.00  0.00    +0.000 A 
ATOM    486  H   A   B  19      12.383  21.634 -21.185  0.00  0.00    +0.000 HD
ATOM    487  H   A   B  19      10.777  22.025 -20.766  0.00  0.00    +0.000 HD
ENDBRANCH 475 476
BRANCH 474 488
ATOM    488  O2' A   B  19       8.433  25.389 -27.771  0.00  0.00    +0.000 OA
ATOM    489  H   A   B  19       7.969  26.240 -27.736  0.00  0.00    +0.000 HD
ENDBRANCH 474 488
BRANCH 471 490
ATOM    490  C5' A   B  19       4.970  25.826 -25.021  0.00  0.00    +0.000 C 
BRANCH 490 491
ATOM    491  O5' A   B  19       5.021  24.910 -23.926  0.00  0.00    +0.000 OA
BRANCH 491 492
ATOM    492  P   A   B  19       3.841  24.844 -22.861  0.00  0.00    +0.000 P 
ATOM    493  OP1 A   B  19       2.555  24.793 -23.599  0.00  0.00    +0.000 OA
BRANCH 492 494
ATOM    494  OP2 A   B  19       4.167  23.777 -21.880  0.00  0.00    +0.000 OA
ATOM    495  H   A   B  19       4.116  22.911 -22.315  0.00  0.00    +0.000 HD
ENDBRANCH 492 494
BRANCH 492 496
ATOM    496  O3' G   B  18       3.933  26.254 -22.116  0.00  0.00    +0.000 OA
BRANCH 496 499
ATOM    497  C4' G   B  18       4.537  27.472 -20.081  0.00  0.00    +0.000 C 
ATOM    498  O4' G   B  18       5.771  28.066 -19.606  0.00  0.00    +0.000 OA
ATOM    499  C3' G   B  18       4.982  26.534 -21.194  0.00  0.00    +0.000 C 
ATOM    500  C2' G   B  18       6.141  27.299 -21.812  0.00  0.00    +0.000 C 
ATOM    501  C1' G   B  18       6.787  27.910 -20.571  0.00  0.00    +0.000 C 
BRANCH 501 502
ATOM    502  N9  G   B  18       7.840  27.050 -20.010  0.00  0.00    +0.000 N 
ATOM    503  C8  G   B  18       7.805  26.351 -18.827  0.00  0.00    +0.000 A 
ATOM    504  N7  G   B  18       8.901  25.673 -18.606  0.00  0.00    +0.000 NA
ATOM    505  C5  G   B  18       9.707  25.941 -19.700  0.00  0.00    +0.000 A 
ATOM    506  C6  G   B  18      11.014  25.492 -20.013  0.00  0.00    +0.000 A 
ATOM    507  O6  G   B  18      11.748  24.739 -19.364  0.00  0.00    +0.000 OA
ATOM    508  N1  G   B  18      11.460  26.005 -21.227  0.00  0.00    +0.000 NA
ATOM    509  C2  G   B  18      10.739  26.846 -22.037  0.00  0.00    +0.000 A 
ATOM    510  N2  G   B  18      11.334  27.243 -23.181  0.00  0.00    +0.000 N 
ATOM    511  N3  G   B  18       9.519  27.278 -21.755  0.00  0.00    +0.000 N 
ATOM    512  C4  G   B  18       9.067  26.788 -20.576  0.00  0.00    +0.000 A 
ATOM    513  H   G   B  18      10.861  27.847 -23.798  0.00  0.00    +0.000 HD
ATOM    514  H   G   B  18      12.241  26.929 -23.399  0.00  0.00    +0.000 HD
ATOM    515  H   G   B  18       9.002  27.884 -22.334  0.00  0.00    +0.000 HD
ENDBRANCH 501 502
BRANCH 500 516
ATOM    516  O2' G   B  18       5.698  28.334 -22.669  0.00  0.00    +0.000 OA
ATOM    517  H   G   B  18       5.110  28.930 -22.179  0.00  0.00    +0.000 HD
ENDBRANCH 500 516
BRANCH 497 518
ATOM    518  C5' G   B  18       3.792  26.838 -18.927  0.00  0.00    +0.000 C 
BRANCH 518 519
ATOM    519  O5' G   B  18       3.584  27.789 -17.884  0.00  0.00    +0.000 OA
BRANCH 519 520
ATOM    520  P   G   B  18       2.126  28.330 -17.554  0.00  0.00    +0.000 P 
ATOM    521  OP1 G   B  18       1.220  27.959 -18.666  0.00  0.00    +0.000 OA
BRANCH 520 522
ATOM    522  OP2 G   B  18       1.793  27.911 -16.168  0.00  0.00    +0.000 OA
ATOM    523  H   G   B  18       1.702  26.946 -16.135  0.00  0.00    +0.000 HD
ENDBRANCH 520 522
BRANCH 520 524
ATOM    524  O3' C   B  17       2.271  29.919 -17.585  0.00  0.00    +0.000 OA
BRANCH 524 527
ATOM    525  C4' C   B  17       3.514  31.888 -16.847  0.00  0.00    +0.000 C 
ATOM    526  O4' C   B  17       4.573  32.663 -17.431  0.00  0.00    +0.000 OA
ATOM    527  C3' C   B  17       3.527  30.584 -17.630  0.00  0.00    +0.000 C 
ATOM    528  C2' C   B  17       3.906  31.041 -19.032  0.00  0.00    +0.000 C 
ATOM    529  C1' C   B  17       4.795  32.241 -18.753  0.00  0.00    +0.000 C 
BRANCH 529 530
ATOM    530  N1  C   B  17       6.247  32.002 -18.965  0.00  0.00    +0.000 N 
ATOM    531  C2  C   B  17       6.937  30.968 -18.308  0.00  0.00    +0.000 A 
ATOM    532  O2  C   B  17       6.363  30.216 -17.516  0.00  0.00    +0.000 OA
ATOM    533  N3  C   B  17       8.266  30.812 -18.548  0.00  0.00    +0.000 NA
ATOM    534  C4  C   B  17       8.899  31.628 -19.397  0.00  0.00    +0.000 A 
ATOM    535  N4  C   B  17      10.211  31.432 -19.604  0.00  0.00    +0.000 N 
ATOM    536  C5  C   B  17       8.218  32.680 -20.079  0.00  0.00    +0.000 A 
ATOM    537  C6  C   B  17       6.902  32.831 -19.825  0.00  0.00    +0.000 A 
ATOM    538  H   C   B  17      10.704  32.017 -20.224  0.00  0.00    +0.000 HD
ATOM    539  H   C   B  17      10.680  30.703 -19.136  0.00  0.00    +0.000 HD
ENDBRANCH 529 530
BRANCH 528 540
ATOM    540  O2' C   B  17       2.766  31.473 -19.762  0.00  0.00    +0.000 OA
ATOM    541  H   C   B  17       2.318  32.181 -19.273  0.00  0.00    +0.000 HD
ENDBRANCH 528 540
BRANCH 525 542
ATOM    542  C5' C   B  17       3.753  31.759 -15.360  0.00  0.00    +0.000 C 
BRANCH 542 543
ATOM    543  O5' C   B  17       3.731  33.046 -14.741  0.00  0.00    +0.000 OA
BRANCH 543 544
ATOM    544  P   C   B  17       4.343  33.298 -13.289  0.00  0.00    +0.000 P 
ATOM    545  OP1 C   B  17       4.293  34.744 -12.999  0.00  0.00    +0.000 OA
BRANCH 544 546
ATOM    546  OP2 C   B  17       3.698  32.331 -12.358  0.00  0.00    +0.000 OA
ATOM    547  H   C   B  17       3.822  31.429 -12.692  0.00  0.00    +0.000 HD
ENDBRANCH 544 546
BRANCH 544 548
ATOM    548  O3' C   B  16       5.864  32.882 -13.422  0.00  0.00    +0.000 OA
BRANCH 548 569
ATOM    549  C4' U   B  15      11.776  33.956 -18.591  0.00  0.00    +0.000 C 
ATOM    550  O4' U   B  15      12.350  32.670 -18.227  0.00  0.00    +0.000 OA
ATOM    551  C3' U   B  15      12.100  34.900 -17.430  0.00  0.00    +0.000 C 
ATOM    552  O3' U   B  15      11.039  34.859 -16.484  0.00  0.00    +0.000 OA
ATOM    553  C2' U   B  15      13.337  34.268 -16.825  0.00  0.00    +0.000 C 
ATOM    554  C1' U   B  15      13.004  32.786 -16.981  0.00  0.00    +0.000 C 
ATOM    555  N1  U   B  15      14.189  31.900 -16.970  0.00  0.00    +0.000 N 
ATOM    556  C2  U   B  15      14.337  31.031 -15.896  0.00  0.00    +0.000 A 
ATOM    557  O2  U   B  15      13.536  30.964 -14.973  0.00  0.00    +0.000 OA
ATOM    558  N3  U   B  15      15.459  30.240 -15.941  0.00  0.00    +0.000 NA
ATOM    559  C4  U   B  15      16.422  30.227 -16.927  0.00  0.00    +0.000 A 
ATOM    560  O4  U   B  15      17.376  29.455 -16.822  0.00  0.00    +0.000 OA
ATOM    561  C5  U   B  15      16.198  31.149 -18.000  0.00  0.00    +0.000 A 
ATOM    562  C6  U   B  15      15.112  31.936 -17.987  0.00  0.00    +0.000 A 
ATOM    563  P   C   B  16      10.009  36.053 -16.264  0.00  0.00    +0.000 P 
ATOM    564  OP1 C   B  16       9.493  36.441 -17.592  0.00  0.00    +0.000 OA
ATOM    565  O5' C   B  16       8.824  35.405 -15.401  0.00  0.00    +0.000 OA
ATOM    566  C5' C   B  16       7.692  34.827 -16.028  0.00  0.00    +0.000 C 
ATOM    567  C4' C   B  16       7.205  33.574 -15.302  0.00  0.00    +0.000 C 
ATOM    568  O4' C   B  16       8.205  32.521 -15.407  0.00  0.00    +0.000 OA
ATOM    569  C3' C   B  16       6.939  33.743 -13.803  0.00  0.00    +0.000 C 
ATOM    570  C2' C   B  16       8.219  33.229 -13.186  0.00  0.00    +0.000 C 
ATOM    571  C1' C   B  16       8.527  32.052 -14.117  0.00  0.00    +0.000 C 
ATOM    572  N1  C   B  16       9.930  31.607 -14.116  0.00  0.00    +0.000 N 
ATOM    573  C2  C   B  16      10.215  30.338 -13.609  0.00  0.00    +0.000 A 
ATOM    574  O2  C   B  16       9.296  29.634 -13.164  0.00  0.00    +0.000 OA
ATOM    575  N3  C   B  16      11.502  29.903 -13.628  0.00  0.00    +0.000 NA
ATOM    576  C4  C   B  16      12.469  30.683 -14.120  0.00  0.00    +0.000 A 
ATOM    577  N4  C   B  16      13.714  30.211 -14.114  0.00  0.00    +0.000 N 
ATOM    578  C5  C   B  16      12.199  31.983 -14.630  0.00  0.00    +0.000 A 
ATOM    579  C6  C   B  16      10.926  32.404 -14.612  0.00  0.00    +0.000 A 
ATOM    580  H   C   B  16      14.360  29.615 -13.671  0.00  0.00    +0.000 HD
BRANCH 570 581
ATOM    581  O2' C   B  16       8.101  32.811 -11.854  0.00  0.00    +0.000 OA
ATOM    582  H   C   B  16       7.429  32.115 -11.792  0.00  0.00    +0.000 HD
ENDBRANCH 570 581
BRANCH 563 583
ATOM    583  OP2 C   B  16      10.691  37.069 -15.412  0.00  0.00    +0.000 OA
ATOM    584  H   C   B  16      11.415  37.477 -15.912  0.00  0.00    +0.000 HD
ENDBRANCH 563 583
BRANCH 553 585
ATOM    585  O2' U   B  15      13.584  34.614 -15.477  0.00  0.00    +0.000 OA
ATOM    586  H   U   B  15      12.820  34.364 -14.934  0.00  0.00    +0.000 HD
ENDBRANCH 553 585
BRANCH 549 587
ATOM    587  C5' U   B  15      12.331  34.385 -19.939  0.00  0.00    +0.000 C 
BRANCH 587 588
ATOM    588  O5' U   B  15      13.758  34.287 -19.959  0.00  0.00    +0.000 OA
BRANCH 588 589
ATOM    589  P   U   B  15      14.588  34.594 -21.289  0.00  0.00    +0.000 P 
ATOM    590  OP1 U   B  15      14.166  35.912 -21.812  0.00  0.00    +0.000 OA
BRANCH 589 591
ATOM    591  OP2 U   B  15      16.022  34.340 -20.988  0.00  0.00    +0.000 OA
ATOM    592  H   U   B  15      16.555  34.518 -21.779  0.00  0.00    +0.000 HD
ENDBRANCH 589 591
BRANCH 589 593
ATOM    593  O3' A   B  14      14.123  33.471 -22.348  0.00  0.00    +0.000 OA
BRANCH 593 596
ATOM    594  C4' A   B  14      14.680  31.367 -23.454  0.00  0.00    +0.000 C 
ATOM    595  O4' A   B  14      14.372  29.982 -23.169  0.00  0.00    +0.000 OA
ATOM    596  C3' A   B  14      14.395  32.087 -22.145  0.00  0.00    +0.000 C 
ATOM    597  C2' A   B  14      13.191  31.331 -21.613  0.00  0.00    +0.000 C 
ATOM    598  C1' A   B  14      13.515  29.898 -22.045  0.00  0.00    +0.000 C 
BRANCH 598 599
ATOM    599  N9  A   B  14      14.190  29.123 -20.997  0.00  0.00    +0.000 N 
ATOM    600  C8  A   B  14      15.498  28.702 -20.966  0.00  0.00    +0.000 A 
ATOM    601  N7  A   B  14      15.804  28.020 -19.885  0.00  0.00    +0.000 NA
ATOM    602  C5  A   B  14      14.617  27.987 -19.162  0.00  0.00    +0.000 A 
ATOM    603  C6  A   B  14      14.277  27.416 -17.926  0.00  0.00    +0.000 A 
ATOM    604  N6  A   B  14      15.143  26.736 -17.160  0.00  0.00    +0.000 N 
ATOM    605  N1  A   B  14      13.009  27.568 -17.490  0.00  0.00    +0.000 NA
ATOM    606  C2  A   B  14      12.144  28.248 -18.249  0.00  0.00    +0.000 A 
ATOM    607  N3  A   B  14      12.343  28.830 -19.431  0.00  0.00    +0.000 NA
ATOM    608  C4  A   B  14      13.617  28.660 -19.835  0.00  0.00    +0.000 A 
ATOM    609  H   A   B  14      16.073  26.613 -17.459  0.00  0.00    +0.000 HD
ATOM    610  H   A   B  14      14.849  26.360 -16.299  0.00  0.00    +0.000 HD
ENDBRANCH 598 599
BRANCH 597 611
ATOM    611  O2' A   B  14      11.986  31.745 -22.228  0.00  0.00    +0.000 OA
ATOM    612  H   A   B  14      12.060  31.639 -23.189  0.00  0.00    +0.000 HD
ENDBRANCH 597 611
BRANCH 594 613
ATOM    613  C5' A   B  14      16.099  31.483 -23.973  0.00  0.00    +0.000 C 
BRANCH 613 614
ATOM    614  O5' A   B  14      17.019  30.814 -23.108  0.00  0.00    +0.000 OA
BRANCH 614 615
ATOM    615  P   A   B  14      18.524  30.527 -23.571  0.00  0.00    +0.000 P 
ATOM    616  OP1 A   B  14      19.058  31.755 -24.200  0.00  0.00    +0.000 OA
BRANCH 615 617
ATOM    617  OP2 A   B  14      19.240  29.918 -22.419  0.00  0.00    +0.000 OA
ATOM    618  H   A   B  14      20.158  29.732 -22.671  0.00  0.00    +0.000 HD
ENDBRANCH 615 617
BRANCH 615 619
ATOM    619  O3' C   B  13      18.380  29.404 -24.730  0.00  0.00    +0.000 OA
BRANCH 619 622
ATOM    620  C4' C   B  13      18.472  27.020 -25.305  0.00  0.00    +0.000 C 
ATOM    621  O4' C   B  13      17.534  25.920 -25.160  0.00  0.00    +0.000 OA
ATOM    622  C3' C   B  13      17.892  28.103 -24.416  0.00  0.00    +0.000 C 
ATOM    623  C2' C   B  13      16.401  27.951 -24.678  0.00  0.00    +0.000 C 
ATOM    624  C1' C   B  13      16.270  26.426 -24.759  0.00  0.00    +0.000 C 
BRANCH 624 625
ATOM    625  N1  C   B  13      15.890  25.826 -23.456  0.00  0.00    +0.000 N 
ATOM    626  C2  C   B  13      14.546  25.905 -23.056  0.00  0.00    +0.000 A 
ATOM    627  O2  C   B  13      13.724  26.458 -23.798  0.00  0.00    +0.000 OA
ATOM    628  N3  C   B  13      14.177  25.371 -21.861  0.00  0.00    +0.000 NA
ATOM    629  C4  C   B  13      15.087  24.783 -21.081  0.00  0.00    +0.000 A 
ATOM    630  N4  C   B  13      14.676  24.277 -19.919  0.00  0.00    +0.000 N 
ATOM    631  C5  C   B  13      16.457  24.693 -21.463  0.00  0.00    +0.000 A 
ATOM    632  C6  C   B  13      16.811  25.224 -22.646  0.00  0.00    +0.000 A 
ATOM    633  H   C   B  13      13.728  24.343 -19.661  0.00  0.00    +0.000 HD
ATOM    634  H   C   B  13      15.320  23.837 -19.318  0.00  0.00    +0.000 HD
ENDBRANCH 624 625
BRANCH 623 635
ATOM    635  O2' C   B  13      16.016  28.520 -25.914  0.00  0.00    +0.000 OA
ATOM    636  H   C   B  13      16.536  28.121 -26.629  0.00  0.00    +0.000 HD
ENDBRANCH 623 635
BRANCH 620 637
ATOM    637  C5' C   B  13      19.872  26.554 -24.973  0.00  0.00    +0.000 C 
BRANCH 637 638
ATOM    638  O5' C   B  13      19.938  25.959 -23.678  0.00  0.00    +0.000 OA
BRANCH 638 639
ATOM    639  P   C   B  13      21.201  25.089 -23.232  0.00  0.00    +0.000 P 
ATOM    640  OP1 C   B  13      22.430  25.820 -23.621  0.00  0.00    +0.000 OA
BRANCH 639 641
ATOM    641  OP2 C   B  13      20.998  24.686 -21.816  0.00  0.00    +0.000 OA
ATOM    642  H   C   B  13      20.151  24.220 -21.731  0.00  0.00    +0.000 HD
ENDBRANCH 639 641
BRANCH 639 643
ATOM    643  O3' U   B  12      21.108  23.771 -24.159  0.00  0.00    +0.000 OA
BRANCH 643 646
ATOM    644  C4' U   B  12      20.545  21.393 -24.304  0.00  0.00    +0.000 C 
ATOM    645  O4' U   B  12      19.297  20.663 -24.464  0.00  0.00    +0.000 OA
ATOM    646  C3' U   B  12      20.102  22.792 -23.918  0.00  0.00    +0.000 C 
ATOM    647  C2' U   B  12      18.861  22.979 -24.782  0.00  0.00    +0.000 C 
ATOM    648  C1' U   B  12      18.243  21.576 -24.720  0.00  0.00    +0.000 C 
BRANCH 648 649
ATOM    649  N1  U   B  12      17.224  21.451 -23.649  0.00  0.00    +0.000 N 
ATOM    650  C2  U   B  12      15.946  21.918 -23.924  0.00  0.00    +0.000 A 
ATOM    651  O2  U   B  12      15.636  22.415 -24.993  0.00  0.00    +0.000 OA
ATOM    652  N3  U   B  12      15.035  21.777 -22.899  0.00  0.00    +0.000 N 
ATOM    653  C4  U   B  12      15.271  21.234 -21.650  0.00  0.00    +0.000 A 
ATOM    654  O4  U   B  12      14.351  21.179 -20.833  0.00  0.00    +0.000 OA
ATOM    655  C5  U   B  12      16.612  20.779 -21.442  0.00  0.00    +0.000 A 
ATOM    656  C6  U   B  12      17.520  20.900 -22.422  0.00  0.00    +0.000 A 
ATOM    657  H   U   B  12      14.121  22.097 -23.075  0.00  0.00    +0.000 HD
ENDBRANCH 648 649
BRANCH 647 658
ATOM    658  O2' U   B  12      19.187  23.283 -26.125  0.00  0.00    +0.000 OA
ATOM    659  H   U   B  12      19.758  22.586 -26.485  0.00  0.00    +0.000 HD
ENDBRANCH 647 658
BRANCH 644 660
ATOM    660  C5' U   B  12      21.435  20.681 -23.309  0.00  0.00    +0.000 C 
BRANCH 660 661
ATOM    661  O5' U   B  12      20.821  20.596 -22.021  0.00  0.00    +0.000 OA
BRANCH 661 662
ATOM    662  P   U   B  12      21.434  19.679 -20.869  0.00  0.00    +0.000 P 
ATOM    663  OP1 U   B  12      22.889  19.958 -20.777  0.00  0.00    +0.000 OA
BRANCH 662 664
ATOM    664  OP2 U   B  12      20.577  19.825 -19.663  0.00  0.00    +0.000 OA
ATOM    665  H   U   B  12      19.659  19.607 -19.890  0.00  0.00    +0.000 HD
ENDBRANCH 662 664
BRANCH 662 666
ATOM    666  O3' U   B  11      21.264  18.185 -21.445  0.00  0.00    +0.000 OA
BRANCH 666 669
ATOM    667  C4' U   B  11      20.077  16.050 -21.326  0.00  0.00    +0.000 C 
ATOM    668  O4' U   B  11      18.811  15.571 -21.856  0.00  0.00    +0.000 OA
ATOM    669  C3' U   B  11      19.981  17.561 -21.450  0.00  0.00    +0.000 C 
ATOM    670  C2' U   B  11      19.234  17.729 -22.766  0.00  0.00    +0.000 C 
ATOM    671  C1' U   B  11      18.242  16.560 -22.700  0.00  0.00    +0.000 C 
BRANCH 671 672
ATOM    672  N1  U   B  11      16.923  16.955 -22.151  0.00  0.00    +0.000 N 
ATOM    673  C2  U   B  11      16.050  17.625 -22.997  0.00  0.00    +0.000 A 
ATOM    674  O2  U   B  11      16.325  17.902 -24.153  0.00  0.00    +0.000 OA
ATOM    675  N3  U   B  11      14.835  17.958 -22.440  0.00  0.00    +0.000 N 
ATOM    676  C4  U   B  11      14.412  17.702 -21.152  0.00  0.00    +0.000 A 
ATOM    677  O4  U   B  11      13.291  18.067 -20.799  0.00  0.00    +0.000 OA
ATOM    678  C5  U   B  11      15.366  17.012 -20.342  0.00  0.00    +0.000 A 
ATOM    679  C6  U   B  11      16.559  16.669 -20.855  0.00  0.00    +0.000 A 
ATOM    680  H   U   B  11      14.199  18.430 -23.025  0.00  0.00    +0.000 HD
ENDBRANCH 671 672
BRANCH 670 681
ATOM    681  O2' U   B  11      20.083  17.548 -23.888  0.00  0.00    +0.000 OA
ATOM    682  H   U   B  11      20.504  16.675 -23.838  0.00  0.00    +0.000 HD
ENDBRANCH 670 681
BRANCH 667 683
ATOM    683  C5' U   B  11      20.282  15.518 -19.926  0.00  0.00    +0.000 C 
BRANCH 683 684
ATOM    684  O5' U   B  11      19.255  15.976 -19.039  0.00  0.00    +0.000 OA
BRANCH 684 685
ATOM    685  P   U   B  11      19.185  15.489 -17.525  0.00  0.00    +0.000 P 
ATOM    686  OP1 U   B  11      20.543  15.616 -16.943  0.00  0.00    +0.000 OA
BRANCH 685 687
ATOM    687  OP2 U   B  11      18.039  16.170 -16.876  0.00  0.00    +0.000 OA
ATOM    688  H   U   B  11      17.229  15.988 -17.377  0.00  0.00    +0.000 HD
ENDBRANCH 685 687
BRANCH 685 689
ATOM    689  O3' U   B  10      18.865  13.918 -17.657  0.00  0.00    +0.000 OA
BRANCH 689 692
ATOM    690  C4' U   B  10      17.203  12.139 -17.392  0.00  0.00    +0.000 C 
ATOM    691  O4' U   B  10      16.121  11.636 -18.220  0.00  0.00    +0.000 OA
ATOM    692  C3' U   B  10      17.553  13.483 -18.004  0.00  0.00    +0.000 C 
ATOM    693  C2' U   B  10      17.380  13.211 -19.488  0.00  0.00    +0.000 C 
ATOM    694  C1' U   B  10      16.156  12.280 -19.487  0.00  0.00    +0.000 C 
BRANCH 694 695
ATOM    695  N1  U   B  10      14.879  13.000 -19.693  0.00  0.00    +0.000 N 
ATOM    696  C2  U   B  10      14.617  13.528 -20.948  0.00  0.00    +0.000 A 
ATOM    697  O2  U   B  10      15.385  13.432 -21.889  0.00  0.00    +0.000 OA
ATOM    698  N3  U   B  10      13.414  14.181 -21.067  0.00  0.00    +0.000 N 
ATOM    699  C4  U   B  10      12.462  14.348 -20.082  0.00  0.00    +0.000 A 
ATOM    700  O4  U   B  10      11.427  14.956 -20.345  0.00  0.00    +0.000 OA
ATOM    701  C5  U   B  10      12.801  13.772 -18.818  0.00  0.00    +0.000 A 
ATOM    702  C6  U   B  10      13.969  13.133 -18.671  0.00  0.00    +0.000 A 
ATOM    703  H   U   B  10      13.210  14.571 -21.948  0.00  0.00    +0.000 HD
ENDBRANCH 694 695
BRANCH 693 704
ATOM    704  O2' U   B  10      18.483  12.533 -20.038  0.00  0.00    +0.000 OA
ATOM    705  H   U   B  10      18.628  11.705 -19.553  0.00  0.00    +0.000 HD
ENDBRANCH 693 704
BRANCH 690 706
ATOM    706  C5' U   B  10      16.764  12.150 -15.943  0.00  0.00    +0.000 C 
BRANCH 706 707
ATOM    707  O5' U   B  10      15.903  13.254 -15.663  0.00  0.00    +0.000 OA
BRANCH 707 708
ATOM    708  P   U   B  10      14.463  13.083 -14.996  0.00  0.00    +0.000 P 
ATOM    709  OP2 U   B  10      13.810  11.896 -15.603  0.00  0.00    +0.000 OA
BRANCH 708 710
ATOM    710  OP1 U   B  10      13.787  14.405 -15.046  0.00  0.00    +0.000 OA
ATOM    711  H   U   B  10      13.607  14.641 -15.969  0.00  0.00    +0.000 HD
ENDBRANCH 708 710
BRANCH 708 712
ATOM    712  O3' A   B   9      14.740  12.733 -13.475  0.00  0.00    +0.000 OA
BRANCH 712 715
ATOM    713  C4' A   B   9      16.710  11.972 -12.326  0.00  0.00    +0.000 C 
ATOM    714  O4' A   B   9      16.194  11.554 -11.028  0.00  0.00    +0.000 OA
ATOM    715  C3' A   B   9      15.875  13.183 -12.733  0.00  0.00    +0.000 C 
ATOM    716  C2' A   B   9      15.402  13.728 -11.394  0.00  0.00    +0.000 C 
ATOM    717  C1' A   B   9      15.164  12.437 -10.619  0.00  0.00    +0.000 C 
BRANCH 717 718
ATOM    718  N9  A   B   9      15.223  12.577  -9.161  0.00  0.00    +0.000 N 
ATOM    719  C8  A   B   9      16.252  13.068  -8.402  0.00  0.00    +0.000 A 
ATOM    720  N7  A   B   9      16.003  13.061  -7.112  0.00  0.00    +0.000 NA
ATOM    721  C5  A   B   9      14.724  12.525  -7.019  0.00  0.00    +0.000 A 
ATOM    722  C6  A   B   9      13.885  12.249  -5.923  0.00  0.00    +0.000 A 
ATOM    723  N6  A   B   9      14.230  12.490  -4.652  0.00  0.00    +0.000 N 
ATOM    724  N1  A   B   9      12.672  11.711  -6.177  0.00  0.00    +0.000 NA
ATOM    725  C2  A   B   9      12.330  11.467  -7.449  0.00  0.00    +0.000 A 
ATOM    726  N3  A   B   9      13.030  11.685  -8.564  0.00  0.00    +0.000 NA
ATOM    727  C4  A   B   9      14.231  12.218  -8.272  0.00  0.00    +0.000 A 
ATOM    728  H   A   B   9      15.110  12.882  -4.446  0.00  0.00    +0.000 HD
ATOM    729  H   A   B   9      13.604  12.276  -3.923  0.00  0.00    +0.000 HD
ENDBRANCH 717 718
BRANCH 716 730
ATOM    730  O2' A   B   9      14.230  14.512 -11.452  0.00  0.00    +0.000 OA
ATOM    731  H   A   B   9      13.509  13.988 -11.834  0.00  0.00    +0.000 HD
ENDBRANCH 716 730
BRANCH 713 732
ATOM    732  C5' A   B   9      18.197  12.226 -12.218  0.00  0.00    +0.000 C 
BRANCH 732 733
ATOM    733  O5' A   B   9      18.503  13.086 -11.111  0.00  0.00    +0.000 OA
BRANCH 733 734
ATOM    734  P   A   B   9      19.616  14.213 -11.219  0.00  0.00    +0.000 P 
ATOM    735  OP1 A   B   9      19.423  14.951 -12.489  0.00  0.00    +0.000 OA
BRANCH 734 736
ATOM    736  OP2 A   B   9      19.625  14.962  -9.934  0.00  0.00    +0.000 OA
ATOM    737  H   A   B   9      20.298  15.660  -9.971  0.00  0.00    +0.000 HD
ENDBRANCH 734 736
BRANCH 734 738
ATOM    738  O3' U   B   8      20.928  13.453 -11.336  0.00  0.00    +0.000 OA
BRANCH 738 741
ATOM    739  C4' U   B   8      22.291  13.207  -9.360  0.00  0.00    +0.000 C 
ATOM    740  O4' U   B   8      23.446  12.366  -9.131  0.00  0.00    +0.000 OA
ATOM    741  C3' U   B   8      21.465  12.501 -10.426  0.00  0.00    +0.000 C 
ATOM    742  C2' U   B   8      22.435  11.573 -11.144  0.00  0.00    +0.000 C 
ATOM    743  C1' U   B   8      23.686  11.578 -10.261  0.00  0.00    +0.000 C 
BRANCH 743 744
ATOM    744  N1  U   B   8      24.137  10.240  -9.817  0.00  0.00    +0.000 N 
ATOM    745  C2  U   B   8      24.934   9.516 -10.675  0.00  0.00    +0.000 A 
ATOM    746  O2  U   B   8      25.254   9.924 -11.778  0.00  0.00    +0.000 OA
ATOM    747  N3  U   B   8      25.329   8.289 -10.204  0.00  0.00    +0.000 N 
ATOM    748  C4  U   B   8      25.023   7.731  -8.982  0.00  0.00    +0.000 A 
ATOM    749  O4  U   B   8      25.465   6.619  -8.702  0.00  0.00    +0.000 OA
ATOM    750  C5  U   B   8      24.196   8.547  -8.145  0.00  0.00    +0.000 A 
ATOM    751  C6  U   B   8      23.795   9.743  -8.583  0.00  0.00    +0.000 A 
ATOM    752  H   U   B   8      25.892   7.749 -10.804  0.00  0.00    +0.000 HD
ENDBRANCH 743 744
BRANCH 742 753
ATOM    753  O2' U   B   8      22.794  12.039 -12.437  0.00  0.00    +0.000 OA
ATOM    754  H   U   B   8      23.203  12.916 -12.363  0.00  0.00    +0.000 HD
ENDBRANCH 742 753
BRANCH 739 755
ATOM    755  C5' U   B   8      21.587  13.429  -8.049  0.00  0.00    +0.000 C 
BRANCH 755 756
ATOM    756  O5' U   B   8      22.548  13.492  -6.992  0.00  0.00    +0.000 OA
BRANCH 756 757
ATOM    757  P   U   B   8      22.301  12.776  -5.582  0.00  0.00    +0.000 P 
ATOM    758  OP2 U   B   8      23.132  11.549  -5.529  0.00  0.00    +0.000 OA
BRANCH 757 759
ATOM    759  OP1 U   B   8      20.843  12.653  -5.353  0.00  0.00    +0.000 OA
ATOM    760  H   U   B   8      20.470  12.015  -5.981  0.00  0.00    +0.000 HD
ENDBRANCH 757 759
BRANCH 757 761
ATOM    761  O3' C   B   7      22.962  13.813  -4.576  0.00  0.00    +0.000 OA
BRANCH 761 764
ATOM    762  C4' C   B   7      25.057  15.024  -4.609  0.00  0.00    +0.000 C 
ATOM    763  O4' C   B   7      25.386  16.428  -4.599  0.00  0.00    +0.000 OA
ATOM    764  C3' C   B   7      23.621  14.980  -5.077  0.00  0.00    +0.000 C 
ATOM    765  C2' C   B   7      23.013  16.254  -4.502  0.00  0.00    +0.000 C 
ATOM    766  C1' C   B   7      24.216  17.207  -4.425  0.00  0.00    +0.000 C 
BRANCH 766 767
ATOM    767  N1  C   B   7      24.209  18.303  -5.423  0.00  0.00    +0.000 N 
ATOM    768  C2  C   B   7      23.147  19.212  -5.461  0.00  0.00    +0.000 A 
ATOM    769  O2  C   B   7      22.205  19.079  -4.673  0.00  0.00    +0.000 OA
ATOM    770  N3  C   B   7      23.169  20.220  -6.361  0.00  0.00    +0.000 NA
ATOM    771  C4  C   B   7      24.197  20.354  -7.194  0.00  0.00    +0.000 A 
ATOM    772  N4  C   B   7      24.170  21.361  -8.057  0.00  0.00    +0.000 N 
ATOM    773  C5  C   B   7      25.296  19.461  -7.174  0.00  0.00    +0.000 A 
ATOM    774  C6  C   B   7      25.267  18.463  -6.278  0.00  0.00    +0.000 A 
ATOM    775  H   C   B   7      24.915  21.489  -8.688  0.00  0.00    +0.000 HD
ATOM    776  H   C   B   7      23.405  21.980  -8.067  0.00  0.00    +0.000 HD
ENDBRANCH 766 767
BRANCH 765 777
ATOM    777  O2' C   B   7      22.515  16.057  -3.187  0.00  0.00    +0.000 OA
ATOM    778  H   C   B   7      23.230  15.738  -2.615  0.00  0.00    +0.000 HD
ENDBRANCH 765 777
BRANCH 762 779
ATOM    779  C5' C   B   7      26.025  14.245  -5.480  0.00  0.00    +0.000 C 
BRANCH 779 780
ATOM    780  O5' C   B   7      27.334  14.757  -5.406  0.00  0.00    +0.000 OA
BRANCH 780 781
ATOM    781  P   C   B   7      28.400  14.365  -4.290  0.00  0.00    +0.000 P 
ATOM    782  OP1 C   B   7      29.716  14.846  -4.770  0.00  0.00    +0.000 OA
BRANCH 781 783
ATOM    783  OP2 C   B   7      27.895  14.826  -2.981  0.00  0.00    +0.000 OA
ATOM    784  H   C   B   7      27.856  15.795  -2.973  0.00  0.00    +0.000 HD
ENDBRANCH 781 783
BRANCH 781 785
ATOM    785  O3' A   B   6      28.443  12.755  -4.245  0.00  0.00    +0.000 OA
BRANCH 785 788
ATOM    786  C4' A   B   6      28.303  11.076  -2.495  0.00  0.00    +0.000 C 
ATOM    787  O4' A   B   6      27.538   9.859  -2.390  0.00  0.00    +0.000 OA
ATOM    788  C3' A   B   6      27.545  11.919  -3.511  0.00  0.00    +0.000 C 
ATOM    789  C2' A   B   6      26.866  10.901  -4.431  0.00  0.00    +0.000 C 
ATOM    790  C1' A   B   6      26.948   9.591  -3.630  0.00  0.00    +0.000 C 
BRANCH 790 791
ATOM    791  N9  A   B   6      25.638   8.959  -3.411  0.00  0.00    +0.000 N 
ATOM    792  C8  A   B   6      24.625   9.328  -2.564  0.00  0.00    +0.000 A 
ATOM    793  N7  A   B   6      23.575   8.545  -2.625  0.00  0.00    +0.000 NA
ATOM    794  C5  A   B   6      23.926   7.598  -3.578  0.00  0.00    +0.000 A 
ATOM    795  C6  A   B   6      23.249   6.488  -4.112  0.00  0.00    +0.000 A 
ATOM    796  N1  A   B   6      23.883   5.756  -5.049  0.00  0.00    +0.000 NA
ATOM    797  C2  A   B   6      25.115   6.116  -5.424  0.00  0.00    +0.000 A 
ATOM    798  N3  A   B   6      25.857   7.135  -4.999  0.00  0.00    +0.000 NA
ATOM    799  C4  A   B   6      25.193   7.844  -4.069  0.00  0.00    +0.000 A 
BRANCH 795 800
ATOM    800  N6  A   B   6      22.012   6.130  -3.738  0.00  0.00    +0.000 N 
ATOM    801  H   A   B   6      21.583   5.342  -4.145  0.00  0.00    +0.000 HD
ATOM    802  H   A   B   6      21.532   6.655  -3.057  0.00  0.00    +0.000 HD
ENDBRANCH 795 800
ENDBRANCH 790 791
BRANCH 789 803
ATOM    803  O2' A   B   6      27.545  10.725  -5.665  0.00  0.00    +0.000 OA
ATOM    804  H   A   B   6      28.455  10.437  -5.495  0.00  0.00    +0.000 HD
ENDBRANCH 789 803
BRANCH 786 805
ATOM    805  C5' A   B   6      28.453  11.686  -1.116  0.00  0.00    +0.000 C 
BRANCH 805 806
ATOM    806  O5' A   B   6      27.181  11.788  -0.487  0.00  0.00    +0.000 OA
BRANCH 806 807
ATOM    807  P   A   B   6      27.050  11.984   1.097  0.00  0.00    +0.000 P 
ATOM    808  OP2 A   B   6      25.603  12.017   1.428  0.00  0.00    +0.000 OA
BRANCH 807 809
ATOM    809  OP1 A   B   6      27.923  13.100   1.501  0.00  0.00    +0.000 OA
ATOM    810  H   A   B   6      27.571  13.931   1.145  0.00  0.00    +0.000 HD
ENDBRANCH 807 809
BRANCH 807 811
ATOM    811  O3' U   B   5      27.649  10.641   1.692  0.00  0.00    +0.000 OA
BRANCH 811 814
ATOM    812  C4' U   B   5      26.952   8.721   3.015  0.00  0.00    +0.000 C 
ATOM    813  O4' U   B   5      26.660   7.336   2.704  0.00  0.00    +0.000 OA
ATOM    814  C3' U   B   5      26.920   9.420   1.671  0.00  0.00    +0.000 C 
ATOM    815  C2' U   B   5      27.532   8.372   0.749  0.00  0.00    +0.000 C 
ATOM    816  C1' U   B   5      26.991   7.069   1.354  0.00  0.00    +0.000 C 
BRANCH 816 817
ATOM    817  N1  U   B   5      25.790   6.561   0.657  0.00  0.00    +0.000 N 
ATOM    818  C2  U   B   5      25.992   5.745  -0.442  0.00  0.00    +0.000 A 
ATOM    819  O2  U   B   5      27.102   5.437  -0.847  0.00  0.00    +0.000 OA
ATOM    820  N3  U   B   5      24.845   5.299  -1.055  0.00  0.00    +0.000 N 
ATOM    821  C4  U   B   5      23.544   5.582  -0.687  0.00  0.00    +0.000 A 
ATOM    822  O4  U   B   5      22.618   5.103  -1.339  0.00  0.00    +0.000 OA
ATOM    823  C5  U   B   5      23.421   6.431   0.457  0.00  0.00    +0.000 A 
ATOM    824  C6  U   B   5      24.521   6.879   1.073  0.00  0.00    +0.000 A 
ATOM    825  H   U   B   5      24.963   4.716  -1.839  0.00  0.00    +0.000 HD
ENDBRANCH 816 817
BRANCH 815 826
ATOM    826  O2' U   B   5      28.947   8.360   0.824  0.00  0.00    +0.000 OA
ATOM    827  H   U   B   5      29.221   8.212   1.743  0.00  0.00    +0.000 HD
ENDBRANCH 815 826
BRANCH 812 828
ATOM    828  C5' U   B   5      25.972   9.237   4.046  0.00  0.00    +0.000 C 
BRANCH 828 829
ATOM    829  O5' U   B   5      24.636   9.178   3.562  0.00  0.00    +0.000 OA
BRANCH 829 830
ATOM    830  P   U   B   5      23.394   9.394   4.543  0.00  0.00    +0.000 P 
ATOM    831  OP2 U   B   5      22.150   9.179   3.762  0.00  0.00    +0.000 OA
BRANCH 830 832
ATOM    832  OP1 U   B   5      23.591  10.666   5.278  0.00  0.00    +0.000 OA
ATOM    833  H   U   B   5      23.503  11.411   4.664  0.00  0.00    +0.000 HD
ENDBRANCH 830 832
BRANCH 830 834
ATOM    834  O3' A   B   4      23.548   8.192   5.600  0.00  0.00    +0.000 OA
BRANCH 834 837
ATOM    835  C4' A   B   4      22.703   6.065   6.455  0.00  0.00    +0.000 C 
ATOM    836  O4' A   B   4      22.837   4.689   6.020  0.00  0.00    +0.000 OA
ATOM    837  C3' A   B   4      23.153   6.875   5.251  0.00  0.00    +0.000 C 
ATOM    838  C2' A   B   4      24.293   6.025   4.712  0.00  0.00    +0.000 C 
ATOM    839  C1' A   B   4      23.748   4.615   4.940  0.00  0.00    +0.000 C 
BRANCH 839 840
ATOM    840  N9  A   B   4      23.039   4.100   3.760  0.00  0.00    +0.000 N 
ATOM    841  C8  A   B   4      21.693   4.132   3.502  0.00  0.00    +0.000 A 
ATOM    842  N7  A   B   4      21.367   3.592   2.353  0.00  0.00    +0.000 NA
ATOM    843  C5  A   B   4      22.577   3.179   1.818  0.00  0.00    +0.000 A 
ATOM    844  C6  A   B   4      22.914   2.532   0.616  0.00  0.00    +0.000 A 
ATOM    845  N1  A   B   4      24.215   2.262   0.391  0.00  0.00    +0.000 NA
ATOM    846  C2  A   B   4      25.115   2.619   1.313  0.00  0.00    +0.000 A 
ATOM    847  N3  A   B   4      24.922   3.230   2.479  0.00  0.00    +0.000 NA
ATOM    848  C4  A   B   4      23.615   3.486   2.671  0.00  0.00    +0.000 A 
BRANCH 844 849
ATOM    849  N6  A   B   4      22.010   2.177  -0.307  0.00  0.00    +0.000 N 
ATOM    850  H   A   B   4      22.300   1.726  -1.132  0.00  0.00    +0.000 HD
ATOM    851  H   A   B   4      21.055   2.368  -0.160  0.00  0.00    +0.000 HD
ENDBRANCH 844 849
ENDBRANCH 839 840
BRANCH 838 852
ATOM    852  O2' A   B   4      25.484   6.186   5.464  0.00  0.00    +0.000 OA
ATOM    853  H   A   B   4      25.309   5.977   6.395  0.00  0.00    +0.000 HD
ENDBRANCH 838 852
BRANCH 835 854
ATOM    854  C5' A   B   4      21.292   6.324   6.931  0.00  0.00    +0.000 C 
BRANCH 854 855
ATOM    855  O5' A   B   4      20.353   6.109   5.882  0.00  0.00    +0.000 OA
BRANCH 855 856
ATOM    856  P   A   B   4      18.782   6.107   6.179  0.00  0.00    +0.000 P 
ATOM    857  OP2 A   B   4      18.077   5.855   4.898  0.00  0.00    +0.000 OA
BRANCH 856 858
ATOM    858  OP1 A   B   4      18.458   7.317   6.972  0.00  0.00    +0.000 OA
ATOM    859  H   A   B   4      18.567   8.106   6.418  0.00  0.00    +0.000 HD
ENDBRANCH 856 858
BRANCH 856 860
ATOM    860  O3' A   B   3      18.591   4.834   7.127  0.00  0.00    +0.000 OA
BRANCH 860 863
ATOM    861  C4' A   B   3      17.842   2.523   7.416  0.00  0.00    +0.000 C 
ATOM    862  O4' A   B   3      18.413   1.237   7.062  0.00  0.00    +0.000 OA
ATOM    863  C3' A   B   3      18.646   3.517   6.599  0.00  0.00    +0.000 C 
ATOM    864  C2' A   B   3      20.041   2.909   6.646  0.00  0.00    +0.000 C 
ATOM    865  C1' A   B   3      19.719   1.417   6.545  0.00  0.00    +0.000 C 
BRANCH 865 866
ATOM    866  N9  A   B   3      19.746   0.936   5.157  0.00  0.00    +0.000 N 
ATOM    867  C8  A   B   3      18.684   0.717   4.319  0.00  0.00    +0.000 A 
ATOM    868  N7  A   B   3      19.032   0.282   3.133  0.00  0.00    +0.000 NA
ATOM    869  C5  A   B   3      20.415   0.213   3.190  0.00  0.00    +0.000 A 
ATOM    870  C6  A   B   3      21.386  -0.179   2.251  0.00  0.00    +0.000 A 
ATOM    871  N1  A   B   3      22.679  -0.133   2.634  0.00  0.00    +0.000 NA
ATOM    872  C2  A   B   3      22.973   0.278   3.874  0.00  0.00    +0.000 A 
ATOM    873  N3  A   B   3      22.149   0.668   4.843  0.00  0.00    +0.000 NA
ATOM    874  C4  A   B   3      20.869   0.612   4.429  0.00  0.00    +0.000 A 
BRANCH 870 875
ATOM    875  N6  A   B   3      21.088  -0.590   1.012  0.00  0.00    +0.000 N 
ATOM    876  H   A   B   3      21.808  -0.853   0.394  0.00  0.00    +0.000 HD
ATOM    877  H   A   B   3      20.149  -0.629   0.719  0.00  0.00    +0.000 HD
ENDBRANCH 870 875
ENDBRANCH 865 866
BRANCH 864 878
ATOM    878  O2' A   B   3      20.692   3.162   7.878  0.00  0.00    +0.000 OA
ATOM    879  H   A   B   3      20.145   2.830   8.607  0.00  0.00    +0.000 HD
ENDBRANCH 864 878
BRANCH 861 880
ATOM    880  C5' A   B   3      16.353   2.512   7.171  0.00  0.00    +0.000 C 
BRANCH 880 881
ATOM    881  O5' A   B   3      16.060   2.286   5.796  0.00  0.00    +0.000 OA
BRANCH 881 882
ATOM    882  P   A   B   3      14.553   2.077   5.304  0.00  0.00    +0.000 P 
ATOM    883  OP2 A   B   3      14.565   1.964   3.829  0.00  0.00    +0.000 OA
BRANCH 882 884
ATOM    884  OP1 A   B   3      13.710   3.105   5.959  0.00  0.00    +0.000 OA
ATOM    885  H   A   B   3      13.928   3.979   5.599  0.00  0.00    +0.000 HD
ENDBRANCH 882 884
BRANCH 882 886
ATOM    886  O3' U   B   2      14.167   0.656   5.921  0.00  0.00    +0.000 OA
BRANCH 886 889
ATOM    887  C4' U   B   2      13.728  -1.719   5.511  0.00  0.00    +0.000 C 
ATOM    888  O4' U   B   2      14.579  -2.889   5.367  0.00  0.00    +0.000 OA
ATOM    889  C3' U   B   2      14.682  -0.549   5.364  0.00  0.00    +0.000 C 
ATOM    890  C2' U   B   2      15.928  -1.068   6.079  0.00  0.00    +0.000 C 
ATOM    891  C1' U   B   2      15.924  -2.539   5.653  0.00  0.00    +0.000 C 
BRANCH 891 892
ATOM    892  N1  U   B   2      16.751  -2.780   4.445  0.00  0.00    +0.000 N 
ATOM    893  C2  U   B   2      18.130  -2.837   4.612  0.00  0.00    +0.000 A 
ATOM    894  O2  U   B   2      18.678  -2.696   5.691  0.00  0.00    +0.000 OA
ATOM    895  N3  U   B   2      18.847  -3.070   3.461  0.00  0.00    +0.000 N 
ATOM    896  C4  U   B   2      18.340  -3.244   2.190  0.00  0.00    +0.000 A 
ATOM    897  O4  U   B   2      19.113  -3.447   1.249  0.00  0.00    +0.000 OA
ATOM    898  C5  U   B   2      16.913  -3.169   2.101  0.00  0.00    +0.000 A 
ATOM    899  C6  U   B   2      16.185  -2.948   3.203  0.00  0.00    +0.000 A 
ATOM    900  H   U   B   2      19.826  -3.118   3.555  0.00  0.00    +0.000 HD
ENDBRANCH 891 892
BRANCH 890 901
ATOM    901  O2' U   B   2      15.800  -0.990   7.486  0.00  0.00    +0.000 OA
ATOM    902  H   U   B   2      15.008  -1.475   7.766  0.00  0.00    +0.000 HD
ENDBRANCH 890 901
BRANCH 887 903
ATOM    903  C5' U   B   2      12.596  -1.777   4.518  0.00  0.00    +0.000 C 
BRANCH 903 904
ATOM    904  O5' U   B   2      13.073  -1.640   3.186  0.00  0.00    +0.000 OA
BRANCH 904 905
ATOM    905  P   U   B   2      12.074  -1.725   1.944  0.00  0.00    +0.000 P 
ATOM    906  OP2 U   B   2      12.860  -1.537   0.702  0.00  0.00    +0.000 OA
BRANCH 905 907
ATOM    907  OP1 U   B   2      10.910  -0.849   2.223  0.00  0.00    +0.000 OA
ATOM    908  H   U   B   2      10.290  -0.888   1.478  0.00  0.00    +0.000 HD
ENDBRANCH 905 907
BRANCH 905 909
ATOM    909  O3' C   B   1      11.550  -3.254   2.008  0.00  0.00    +0.000 OA
BRANCH 909 912
ATOM    910  C4' C   B   1      11.430  -5.344   0.757  0.00  0.00    +0.000 C 
ATOM    911  O4' C   B   1      12.242  -6.547   0.737  0.00  0.00    +0.000 OA
ATOM    912  C3' C   B   1      12.309  -4.305   1.434  0.00  0.00    +0.000 C 
ATOM    913  C2' C   B   1      13.066  -5.138   2.467  0.00  0.00    +0.000 C 
ATOM    914  C1' C   B   1      13.282  -6.444   1.708  0.00  0.00    +0.000 C 
BRANCH 914 915
ATOM    915  N1  C   B   1      14.592  -6.511   1.014  0.00  0.00    +0.000 N 
ATOM    916  C2  C   B   1      15.759  -6.660   1.778  0.00  0.00    +0.000 A 
ATOM    917  O2  C   B   1      15.680  -6.727   3.011  0.00  0.00    +0.000 OA
ATOM    918  N3  C   B   1      16.956  -6.726   1.148  0.00  0.00    +0.000 NA
ATOM    919  C4  C   B   1      17.016  -6.647  -0.184  0.00  0.00    +0.000 A 
ATOM    920  N4  C   B   1      18.219  -6.721  -0.763  0.00  0.00    +0.000 N 
ATOM    921  C5  C   B   1      15.847  -6.499  -0.982  0.00  0.00    +0.000 A 
ATOM    922  C6  C   B   1      14.666  -6.437  -0.349  0.00  0.00    +0.000 A 
ATOM    923  H   C   B   1      18.298  -6.666  -1.743  0.00  0.00    +0.000 HD
ATOM    924  H   C   B   1      19.026  -6.830  -0.210  0.00  0.00    +0.000 HD
ENDBRANCH 914 915
BRANCH 913 925
ATOM    925  O2' C   B   1      12.281  -5.387   3.609  0.00  0.00    +0.000 OA
ATOM    926  H   C   B   1      11.455  -5.821   3.345  0.00  0.00    +0.000 HD
ENDBRANCH 913 925
BRANCH 910 927
ATOM    927  C5' C   B   1      10.970  -4.994  -0.642  0.00  0.00    +0.000 C 
BRANCH 927 928
ATOM    928  O5' C   B   1      12.052  -4.588  -1.474  0.00  0.00    +0.000 OA
BRANCH 928 930
ATOM    929  OP3 C   B   1      11.780  -4.784  -3.964  0.00  0.00    +0.000 OA
ATOM    930  P   C   B   1      11.861  -4.033  -2.969  0.00  0.00    +0.000 P 
BRANCH 930 931
ATOM    931  OP1 C   B   1      10.528  -3.392  -2.983  0.00  0.00    +0.000 OA
ATOM    932  H   C   B   1      10.351  -3.033  -3.867  0.00  0.00    +0.000 HD
ENDBRANCH 930 931
BRANCH 930 933
ATOM    933  OP2 C   B   1      12.989  -3.165  -3.260  0.00  0.00    +0.000 OA
ATOM    934  H   C   B   1      12.902  -2.813  -4.160  0.00  0.00    +0.000 HD
ENDBRANCH 930 933
ENDBRANCH 928 930
ENDBRANCH 927 928
ENDBRANCH 910 927
ENDBRANCH 909 912
ENDBRANCH 905 909
ENDBRANCH 904 905
ENDBRANCH 903 904
ENDBRANCH 887 903
ENDBRANCH 886 889
ENDBRANCH 882 886
ENDBRANCH 881 882
ENDBRANCH 880 881
ENDBRANCH 861 880
ENDBRANCH 860 863
ENDBRANCH 856 860
ENDBRANCH 855 856
ENDBRANCH 854 855
ENDBRANCH 835 854
ENDBRANCH 834 837
ENDBRANCH 830 834
ENDBRANCH 829 830
ENDBRANCH 828 829
ENDBRANCH 812 828
ENDBRANCH 811 814
ENDBRANCH 807 811
ENDBRANCH 806 807
ENDBRANCH 805 806
ENDBRANCH 786 805
ENDBRANCH 785 788
ENDBRANCH 781 785
ENDBRANCH 780 781
ENDBRANCH 779 780
ENDBRANCH 762 779
ENDBRANCH 761 764
ENDBRANCH 757 761
ENDBRANCH 756 757
ENDBRANCH 755 756
ENDBRANCH 739 755
ENDBRANCH 738 741
ENDBRANCH 734 738
ENDBRANCH 733 734
ENDBRANCH 732 733
ENDBRANCH 713 732
ENDBRANCH 712 715
ENDBRANCH 708 712
ENDBRANCH 707 708
ENDBRANCH 706 707
ENDBRANCH 690 706
ENDBRANCH 689 692
ENDBRANCH 685 689
ENDBRANCH 684 685
ENDBRANCH 683 684
ENDBRANCH 667 683
ENDBRANCH 666 669
ENDBRANCH 662 666
ENDBRANCH 661 662
ENDBRANCH 660 661
ENDBRANCH 644 660
ENDBRANCH 643 646
ENDBRANCH 639 643
ENDBRANCH 638 639
ENDBRANCH 637 638
ENDBRANCH 620 637
ENDBRANCH 619 622
ENDBRANCH 615 619
ENDBRANCH 614 615
ENDBRANCH 613 614
ENDBRANCH 594 613
ENDBRANCH 593 596
ENDBRANCH 589 593
ENDBRANCH 588 589
ENDBRANCH 587 588
ENDBRANCH 549 587
ENDBRANCH 548 569
ENDBRANCH 544 548
ENDBRANCH 543 544
ENDBRANCH 542 543
ENDBRANCH 525 542
ENDBRANCH 524 527
ENDBRANCH 520 524
ENDBRANCH 519 520
ENDBRANCH 518 519
ENDBRANCH 497 518
ENDBRANCH 496 499
ENDBRANCH 492 496
ENDBRANCH 491 492
ENDBRANCH 490 491
ENDBRANCH 471 490
ENDBRANCH 470 473
ENDBRANCH 466 470
ENDBRANCH 465 466
ENDBRANCH 464 465
ENDBRANCH 445 464
ENDBRANCH 444 447
ENDBRANCH 440 444
ENDBRANCH 439 440
ENDBRANCH 438 439
ENDBRANCH 419 438
ENDBRANCH 418 421
ENDBRANCH 414 418
ENDBRANCH 413 414
ENDBRANCH 412 413
ENDBRANCH 395 412
ENDBRANCH 394 397
ENDBRANCH 390 394
ENDBRANCH 389 390
ENDBRANCH 388 389
ENDBRANCH 372 388
ENDBRANCH 371 374
ENDBRANCH 367 371
ENDBRANCH 366 367
ENDBRANCH 365 366
ENDBRANCH 349 365
ENDBRANCH 348 351
ENDBRANCH 344 348
ENDBRANCH 343 344
ENDBRANCH 342 343
ENDBRANCH 326 342
ENDBRANCH 325 328
ENDBRANCH 321 325
ENDBRANCH 320 321
ENDBRANCH 319 320
ENDBRANCH 303 319
ENDBRANCH 302 305
ENDBRANCH 298 302
ENDBRANCH 297 298
ENDBRANCH 296 297
ENDBRANCH 280 296
ENDBRANCH 279 282
ENDBRANCH 275 279
ENDBRANCH 274 275
ENDBRANCH 273 274
ENDBRANCH 257 273
ENDBRANCH 256 259
ENDBRANCH 252 256
ENDBRANCH 251 252
ENDBRANCH 250 251
ENDBRANCH 231 250
ENDBRANCH 230 233
ENDBRANCH 226 230
ENDBRANCH 225 226
ENDBRANCH 224 225
ENDBRANCH 205 224
ENDBRANCH 204 207
ENDBRANCH 200 204
ENDBRANCH 199 200
ENDBRANCH 198 199
ENDBRANCH 179 198
ENDBRANCH 178 181
ENDBRANCH 174 178
ENDBRANCH 173 174
ENDBRANCH 172 173
ENDBRANCH 153 172
ENDBRANCH 152 155
ENDBRANCH 148 152
ENDBRANCH 147 148
ENDBRANCH 146 147
ENDBRANCH 130 146
ENDBRANCH 129 132
ENDBRANCH 125 129
ENDBRANCH 124 125
ENDBRANCH 123 124
ENDBRANCH 104 123
ENDBRANCH 103 106
ENDBRANCH  99 103
ENDBRANCH  98  99
ENDBRANCH  97  98
ENDBRANCH  78  97
ENDBRANCH  77  80
ENDBRANCH  73  77
ENDBRANCH  72  73
ENDBRANCH  71  72
ENDBRANCH  55  71
ENDBRANCH  54  57
ENDBRANCH  50  54
ENDBRANCH  49  50
ENDBRANCH  48  49
ENDBRANCH  29  48
ENDBRANCH  28  31
ENDBRANCH  24  28
ENDBRANCH  23  24
ENDBRANCH  22  23
ENDBRANCH   6  22
ENDBRANCH   5   8
ENDBRANCH   1   5
BRANCH   1 935
ATOM    935  O5' U   B  39     -18.939 -17.234 -51.174  0.00  0.00    +0.000 OA
BRANCH 935 936
ATOM    936  C5' U   B  39     -19.540 -15.965 -51.379  0.00  0.00    +0.000 C 
BRANCH 936 937
ATOM    937  C4' U   B  39     -18.765 -15.156 -52.391  0.00  0.00    +0.000 C 
ATOM    938  O4' U   B  39     -17.391 -14.991 -51.950  0.00  0.00    +0.000 OA
ATOM    939  C3' U   B  39     -18.638 -15.766 -53.766  0.00  0.00    +0.000 C 
ATOM    940  O3' U   B  39     -19.812 -15.568 -54.554  0.00  0.00    +0.000 OA
ATOM    941  C2' U   B  39     -17.417 -15.047 -54.325  0.00  0.00    +0.000 C 
ATOM    942  C1' U   B  39     -16.536 -14.922 -53.072  0.00  0.00    +0.000 C 
ATOM    943  N1  U   B  39     -15.517 -15.987 -52.979  0.00  0.00    +0.000 N 
ATOM    944  C2  U   B  39     -14.361 -15.831 -53.726  0.00  0.00    +0.000 A 
ATOM    945  O2  U   B  39     -14.154 -14.864 -54.442  0.00  0.00    +0.000 OA
ATOM    946  N3  U   B  39     -13.445 -16.851 -53.605  0.00  0.00    +0.000 NA
ATOM    947  C4  U   B  39     -13.571 -17.987 -52.830  0.00  0.00    +0.000 A 
ATOM    948  O4  U   B  39     -12.659 -18.815 -52.830  0.00  0.00    +0.000 OA
ATOM    949  C5  U   B  39     -14.793 -18.075 -52.091  0.00  0.00    +0.000 A 
ATOM    950  C6  U   B  39     -15.703 -17.095 -52.184  0.00  0.00    +0.000 A 
ATOM    951  P   C   B  40     -20.612 -16.792 -55.199  0.00  0.00    +0.000 P 
ATOM    952  OP1 C   B  40     -21.789 -16.239 -55.914  0.00  0.00    +0.000 OA
ATOM    953  O5' C   B  40     -19.587 -17.338 -56.296  0.00  0.00    +0.000 OA
ATOM    954  C5' C   B  40     -18.918 -16.447 -57.191  0.00  0.00    +0.000 C 
ATOM    955  C4' C   B  40     -17.702 -17.120 -57.781  0.00  0.00    +0.000 C 
ATOM    956  O4' C   B  40     -17.055 -17.917 -56.769  0.00  0.00    +0.000 OA
ATOM    957  C3' C   B  40     -17.966 -18.047 -58.962  0.00  0.00    +0.000 C 
ATOM    958  O3' C   B  40     -17.525 -17.439 -60.165  0.00  0.00    +0.000 OA
ATOM    959  C2' C   B  40     -17.168 -19.313 -58.686  0.00  0.00    +0.000 C 
ATOM    960  C1' C   B  40     -16.423 -19.012 -57.388  0.00  0.00    +0.000 C 
ATOM    961  P   U   B  41     -18.167 -16.347 -60.959  0.00  0.00    +0.000 P 
ATOM    962  OP2 U   B  41     -17.940 -16.622 -62.396  0.00  0.00    +0.000 OA
ATOM    963  O5' U   B  41     -17.311 -15.058 -60.582  0.00  0.00    +0.000 OA
ATOM    964  C5' U   B  41     -16.169 -14.665 -61.333  0.00  0.00    +0.000 C 
ATOM    965  C4' U   B  41     -16.383 -13.318 -61.975  0.00  0.00    +0.000 C 
ATOM    966  O4' U   B  41     -17.749 -13.224 -62.458  0.00  0.00    +0.000 OA
ATOM    967  C3' U   B  41     -16.218 -12.101 -61.078  0.00  0.00    +0.000 C 
ATOM    968  O3' U   B  41     -14.858 -11.709 -60.926  0.00  0.00    +0.000 OA
ATOM    969  C2' U   B  41     -17.039 -11.045 -61.797  0.00  0.00    +0.000 C 
ATOM    970  C1' U   B  41     -18.190 -11.886 -62.357  0.00  0.00    +0.000 C 
ATOM    971  P   U   B  42     -14.218 -11.276 -59.527  0.00  0.00    +0.000 P 
ATOM    972  OP1 U   B  42     -12.885 -10.683 -59.778  0.00  0.00    +0.000 OA
ATOM    973  O5' U   B  42     -15.171 -10.124 -58.971  0.00  0.00    +0.000 OA
ATOM    974  C5' U   B  42     -15.148  -8.800 -59.505  0.00  0.00    +0.000 C 
ATOM    975  C4' U   B  42     -16.378  -8.022 -59.101  0.00  0.00    +0.000 C 
ATOM    976  O4' U   B  42     -17.560  -8.840 -59.311  0.00  0.00    +0.000 OA
ATOM    977  C3' U   B  42     -16.459  -7.609 -57.641  0.00  0.00    +0.000 C 
ATOM    978  O3' U   B  42     -15.747  -6.399 -57.385  0.00  0.00    +0.000 OA
ATOM    979  C2' U   B  42     -17.956  -7.446 -57.423  0.00  0.00    +0.000 C 
ATOM    980  C1' U   B  42     -18.526  -8.552 -58.318  0.00  0.00    +0.000 C 
ATOM    981  P   A   B  43     -14.827  -6.181 -56.061  0.00  0.00    +0.000 P 
ATOM    982  OP2 A   B  43     -13.726  -7.172 -56.132  0.00  0.00    +0.000 OA
ATOM    983  O5' A   B  43     -15.763  -6.581 -54.834  0.00  0.00    +0.000 OA
ATOM    984  C5' A   B  43     -16.842  -5.749 -54.400  0.00  0.00    +0.000 C 
ATOM    985  C4' A   B  43     -17.691  -6.471 -53.373  0.00  0.00    +0.000 C 
ATOM    986  O4' A   B  43     -18.167  -7.720 -53.938  0.00  0.00    +0.000 OA
ATOM    987  C3' A   B  43     -16.961  -6.870 -52.095  0.00  0.00    +0.000 C 
ATOM    988  C2' A   B  43     -17.725  -8.107 -51.637  0.00  0.00    +0.000 C 
ATOM    989  C1' A   B  43     -18.110  -8.749 -52.973  0.00  0.00    +0.000 C 
ATOM    990  N9  A   B  43     -17.140  -9.754 -53.430  0.00  0.00    +0.000 N 
ATOM    991  C8  A   B  43     -16.043  -9.559 -54.232  0.00  0.00    +0.000 A 
ATOM    992  N7  A   B  43     -15.369 -10.656 -54.482  0.00  0.00    +0.000 NA
ATOM    993  C5  A   B  43     -16.069 -11.639 -53.801  0.00  0.00    +0.000 A 
ATOM    994  C6  A   B  43     -15.870 -13.025 -53.670  0.00  0.00    +0.000 C 
ATOM    995  N6  A   B  43     -14.854 -13.684 -54.243  0.00  0.00    +0.000 NA
ATOM    996  N1  A   B  43     -16.753 -13.721 -52.920  0.00  0.00    +0.000 N 
ATOM    997  C2  A   B  43     -17.769 -13.060 -52.349  0.00  0.00    +0.000 C 
ATOM    998  N3  A   B  43     -18.063 -11.762 -52.399  0.00  0.00    +0.000 NA
ATOM    999  C4  A   B  43     -17.163 -11.099 -53.151  0.00  0.00    +0.000 A 
BRANCH 9601000
ATOM   1000  N1  C   B  40     -16.381 -20.141 -56.443  0.00  0.00    +0.000 N 
ATOM   1001  C2  C   B  40     -15.347 -21.075 -56.567  0.00  0.00    +0.000 A 
ATOM   1002  O2  C   B  40     -14.495 -20.925 -57.461  0.00  0.00    +0.000 OA
ATOM   1003  N3  C   B  40     -15.300 -22.127 -55.708  0.00  0.00    +0.000 NA
ATOM   1004  C4  C   B  40     -16.229 -22.257 -54.756  0.00  0.00    +0.000 A 
ATOM   1005  N4  C   B  40     -16.137 -23.300 -53.938  0.00  0.00    +0.000 N 
ATOM   1006  C5  C   B  40     -17.288 -21.319 -54.607  0.00  0.00    +0.000 A 
ATOM   1007  C6  C   B  40     -17.324 -20.287 -55.464  0.00  0.00    +0.000 A 
ATOM   1008  H   C   B  40     -15.402 -23.946 -54.045  0.00  0.00    +0.000 HD
ATOM   1009  H   C   B  40     -16.804 -23.426 -53.225  0.00  0.00    +0.000 HD
ENDBRANCH 9601000
BRANCH 9701010
ATOM   1010  N1  U   B  41     -19.410 -11.829 -61.518  0.00  0.00    +0.000 N 
ATOM   1011  C2  U   B  41     -20.201 -10.702 -61.602  0.00  0.00    +0.000 A 
ATOM   1012  O2  U   B  41     -19.945  -9.755 -62.330  0.00  0.00    +0.000 OA
ATOM   1013  N3  U   B  41     -21.313 -10.709 -60.796  0.00  0.00    +0.000 N 
ATOM   1014  C4  U   B  41     -21.709 -11.716 -59.939  0.00  0.00    +0.000 A 
ATOM   1015  O4  U   B  41     -22.743 -11.576 -59.280  0.00  0.00    +0.000 OA
ATOM   1016  C5  U   B  41     -20.842 -12.849 -59.908  0.00  0.00    +0.000 A 
ATOM   1017  C6  U   B  41     -19.748 -12.868 -60.686  0.00  0.00    +0.000 A 
ATOM   1018  H   U   B  41     -21.889  -9.911 -60.833  0.00  0.00    +0.000 HD
ENDBRANCH 9701010
BRANCH 9801019
ATOM   1019  N1  U   B  42     -18.853  -9.788 -57.578  0.00  0.00    +0.000 N 
ATOM   1020  C2  U   B  42     -20.039  -9.817 -56.864  0.00  0.00    +0.000 A 
ATOM   1021  O2  U   B  42     -20.814  -8.870 -56.819  0.00  0.00    +0.000 OA
ATOM   1022  N3  U   B  42     -20.292 -10.993 -56.200  0.00  0.00    +0.000 N 
ATOM   1023  C4  U   B  42     -19.496 -12.122 -56.179  0.00  0.00    +0.000 A 
ATOM   1024  O4  U   B  42     -19.862 -13.106 -55.536  0.00  0.00    +0.000 OA
ATOM   1025  C5  U   B  42     -18.290 -12.018 -56.942  0.00  0.00    +0.000 A 
ATOM   1026  C6  U   B  42     -18.016 -10.882 -57.601  0.00  0.00    +0.000 A 
ATOM   1027  H   U   B  42     -21.130 -11.036 -55.684  0.00  0.00    +0.000 HD
ENDBRANCH 9801019
BRANCH 9611028
ATOM   1028  OP1 U   B  41     -19.539 -16.165 -60.458  0.00  0.00    +0.000 OA
ATOM   1029  H   U   B  41     -19.976 -15.459 -60.960  0.00  0.00    +0.000 HD
ENDBRANCH 9611028
BRANCH 9691030
ATOM   1030  O2' U   B  41     -16.320 -10.451 -62.862  0.00  0.00    +0.000 OA
ATOM   1031  H   U   B  41     -16.025 -11.140 -63.477  0.00  0.00    +0.000 HD
ENDBRANCH 9691030
BRANCH 9711032
ATOM   1032  OP2 U   B  42     -14.345 -12.451 -58.635  0.00  0.00    +0.000 OA
ATOM   1033  H   U   B  42     -13.772 -13.165 -58.957  0.00  0.00    +0.000 HD
ENDBRANCH 9711032
BRANCH 9791034
ATOM   1034  O2' U   B  42     -18.430  -6.190 -57.872  0.00  0.00    +0.000 OA
ATOM   1035  H   U   B  42     -18.210  -6.078 -58.810  0.00  0.00    +0.000 HD
ENDBRANCH 9791034
BRANCH 9811036
ATOM   1036  OP1 A   B  43     -14.510  -4.739 -55.950  0.00  0.00    +0.000 OA
ATOM   1037  H   A   B  43     -13.940  -4.475 -56.689  0.00  0.00    +0.000 HD
ENDBRANCH 9811036
BRANCH 9881038
ATOM   1038  O2' A   B  43     -18.903  -7.776 -50.922  0.00  0.00    +0.000 OA
ATOM   1039  H   A   B  43     -19.468  -7.212 -51.473  0.00  0.00    +0.000 HD
ENDBRANCH 9881038
BRANCH 9591040
ATOM   1040  O2' C   B  40     -16.235 -19.631 -59.713  0.00  0.00    +0.000 OA
ATOM   1041  H   C   B  40     -15.608 -18.899 -59.818  0.00  0.00    +0.000 HD
ENDBRANCH 9591040
BRANCH 9411042
ATOM   1042  O2' U   B  39     -17.730 -13.762 -54.813  0.00  0.00    +0.000 OA
ATOM   1043  H   U   B  39     -18.140 -13.239 -54.107  0.00  0.00    +0.000 HD
ENDBRANCH 9411042
BRANCH 9511044
ATOM   1044  OP2 C   B  40     -20.810 -17.849 -54.185  0.00  0.00    +0.000 OA
ATOM   1045  H   C   B  40     -21.296 -18.590 -54.581  0.00  0.00    +0.000 HD
ENDBRANCH 9511044
BRANCH 9871046
ATOM   1046  O3' A   B  43     -16.992  -5.830 -51.126  0.00  0.00    +0.000 OA
BRANCH10461047
ATOM   1047  P   C   B  44     -15.684  -5.288 -50.402  0.00  0.00    +0.000 P 
ATOM   1048  OP2 C   B  44     -14.686  -4.979 -51.458  0.00  0.00    +0.000 OA
BRANCH10471049
ATOM   1049  OP1 C   B  44     -16.082  -4.245 -49.431  0.00  0.00    +0.000 OA
ATOM   1050  H   C   B  44     -16.410  -3.467 -49.908  0.00  0.00    +0.000 HD
ENDBRANCH10471049
BRANCH10471051
ATOM   1051  O5' C   B  44     -15.152  -6.548 -49.580  0.00  0.00    +0.000 OA
BRANCH10511052
ATOM   1052  C5' C   B  44     -15.961  -7.211 -48.612  0.00  0.00    +0.000 C 
BRANCH10521053
ATOM   1053  C4' C   B  44     -15.267  -8.455 -48.116  0.00  0.00    +0.000 C 
ATOM   1054  O4' C   B  44     -14.846  -9.256 -49.252  0.00  0.00    +0.000 OA
ATOM   1055  C3' C   B  44     -13.994  -8.218 -47.317  0.00  0.00    +0.000 C 
ATOM   1056  C2' C   B  44     -13.218  -9.521 -47.533  0.00  0.00    +0.000 C 
ATOM   1057  C1' C   B  44     -13.607  -9.876 -48.974  0.00  0.00    +0.000 C 
BRANCH10571058
ATOM   1058  N1  C   B  44     -12.617  -9.431 -49.987  0.00  0.00    +0.000 N 
ATOM   1059  C2  C   B  44     -11.717 -10.367 -50.502  0.00  0.00    +0.000 A 
ATOM   1060  O2  C   B  44     -11.766 -11.538 -50.102  0.00  0.00    +0.000 OA
ATOM   1061  N3  C   B  44     -10.812  -9.971 -51.436  0.00  0.00    +0.000 NA
ATOM   1062  C4  C   B  44     -10.782  -8.701 -51.852  0.00  0.00    +0.000 A 
ATOM   1063  N4  C   B  44      -9.876  -8.366 -52.773  0.00  0.00    +0.000 N 
ATOM   1064  C5  C   B  44     -11.688  -7.732 -51.339  0.00  0.00    +0.000 A 
ATOM   1065  C6  C   B  44     -12.578  -8.133 -50.422  0.00  0.00    +0.000 A 
ATOM   1066  H   C   B  44      -9.254  -9.045 -53.121  0.00  0.00    +0.000 HD
ATOM   1067  H   C   B  44      -9.830  -7.440 -53.104  0.00  0.00    +0.000 HD
ENDBRANCH10571058
BRANCH10561068
ATOM   1068  O2' C   B  44     -13.653 -10.550 -46.667  0.00  0.00    +0.000 OA
ATOM   1069  H   C   B  44     -14.605 -10.694 -46.788  0.00  0.00    +0.000 HD
ENDBRANCH10561068
BRANCH10551070
ATOM   1070  O3' C   B  44     -14.288  -7.957 -45.955  0.00  0.00    +0.000 OA
BRANCH10701071
ATOM   1071  P   U   B  45     -13.207  -7.636 -44.847  0.00  0.00    +0.000 P 
ATOM   1072  OP2 U   B  45     -11.848  -7.777 -45.416  0.00  0.00    +0.000 OA
BRANCH10711073
ATOM   1073  OP1 U   B  45     -13.587  -6.390 -44.137  0.00  0.00    +0.000 OA
ATOM   1074  H   U   B  45     -13.436  -5.628 -44.718  0.00  0.00    +0.000 HD
ENDBRANCH10711073
BRANCH10711075
ATOM   1075  O5' U   B  45     -13.471  -8.863 -43.856  0.00  0.00    +0.000 OA
BRANCH10751076
ATOM   1076  C5' U   B  45     -14.785  -9.148 -43.382  0.00  0.00    +0.000 C 
BRANCH10761077
ATOM   1077  C4' U   B  45     -14.800 -10.419 -42.571  0.00  0.00    +0.000 C 
ATOM   1078  O4' U   B  45     -14.433 -11.547 -43.409  0.00  0.00    +0.000 OA
ATOM   1079  C3' U   B  45     -13.812 -10.476 -41.420  0.00  0.00    +0.000 C 
ATOM   1080  C2' U   B  45     -13.664 -11.978 -41.200  0.00  0.00    +0.000 C 
ATOM   1081  C1' U   B  45     -13.712 -12.497 -42.643  0.00  0.00    +0.000 C 
BRANCH10811082
ATOM   1082  N1  U   B  45     -12.366 -12.671 -43.233  0.00  0.00    +0.000 N 
ATOM   1083  C2  U   B  45     -11.631 -13.775 -42.834  0.00  0.00    +0.000 A 
ATOM   1084  O2  U   B  45     -12.039 -14.593 -42.025  0.00  0.00    +0.000 OA
ATOM   1085  N3  U   B  45     -10.391 -13.891 -43.420  0.00  0.00    +0.000 N 
ATOM   1086  C4  U   B  45      -9.823 -13.034 -44.342  0.00  0.00    +0.000 A 
ATOM   1087  O4  U   B  45      -8.695 -13.277 -44.777  0.00  0.00    +0.000 OA
ATOM   1088  C5  U   B  45     -10.643 -11.916 -44.701  0.00  0.00    +0.000 A 
ATOM   1089  C6  U   B  45     -11.859 -11.779 -44.150  0.00  0.00    +0.000 A 
ATOM   1090  H   U   B  45      -9.850 -14.669 -43.153  0.00  0.00    +0.000 HD
ENDBRANCH10811082
BRANCH10801091
ATOM   1091  O2' U   B  45     -14.751 -12.511 -40.470  0.00  0.00    +0.000 OA
ATOM   1092  H   U   B  45     -15.581 -12.303 -40.927  0.00  0.00    +0.000 HD
ENDBRANCH10801091
BRANCH10791093
ATOM   1093  O3' U   B  45     -14.283  -9.785 -40.271  0.00  0.00    +0.000 OA
BRANCH10931094
ATOM   1094  P   U   B  46     -13.271  -8.990 -39.303  0.00  0.00    +0.000 P 
ATOM   1095  OP2 U   B  46     -12.324  -8.233 -40.161  0.00  0.00    +0.000 OA
BRANCH10941096
ATOM   1096  OP1 U   B  46     -14.053  -8.277 -38.261  0.00  0.00    +0.000 OA
ATOM   1097  H   U   B  46     -14.550  -7.551 -38.670  0.00  0.00    +0.000 HD
ENDBRANCH10941096
BRANCH10941098
ATOM   1098  O5' U   B  46     -12.470 -10.171 -38.596  0.00  0.00    +0.000 OA
BRANCH10981099
ATOM   1099  C5' U   B  46     -13.133 -11.094 -37.730  0.00  0.00    +0.000 C 
BRANCH10991100
ATOM   1100  C4' U   B  46     -12.260 -12.287 -37.436  0.00  0.00    +0.000 C 
ATOM   1101  O4' U   B  46     -11.934 -12.983 -38.672  0.00  0.00    +0.000 OA
ATOM   1102  C3' U   B  46     -10.905 -11.987 -36.823  0.00  0.00    +0.000 C 
ATOM   1103  C2' U   B  46     -10.122 -13.251 -37.160  0.00  0.00    +0.000 C 
ATOM   1104  C1' U   B  46     -10.644 -13.557 -38.569  0.00  0.00    +0.000 C 
BRANCH11041105
ATOM   1105  N1  U   B  46      -9.776 -12.993 -39.630  0.00  0.00    +0.000 N 
ATOM   1106  C2  U   B  46      -8.644 -13.717 -39.976  0.00  0.00    +0.000 A 
ATOM   1107  O2  U   B  46      -8.350 -14.779 -39.451  0.00  0.00    +0.000 OA
ATOM   1108  N3  U   B  46      -7.864 -13.156 -40.964  0.00  0.00    +0.000 N 
ATOM   1109  C4  U   B  46      -8.095 -11.967 -41.623  0.00  0.00    +0.000 A 
ATOM   1110  O4  U   B  46      -7.300 -11.593 -42.492  0.00  0.00    +0.000 OA
ATOM   1111  C5  U   B  46      -9.281 -11.276 -41.207  0.00  0.00    +0.000 A 
ATOM   1112  C6  U   B  46     -10.059 -11.799 -40.249  0.00  0.00    +0.000 A 
ATOM   1113  H   U   B  46      -7.058 -13.656 -41.227  0.00  0.00    +0.000 HD
ENDBRANCH11041105
BRANCH11031114
ATOM   1114  O2' U   B  46     -10.448 -14.326 -36.299  0.00  0.00    +0.000 OA
ATOM   1115  H   U   B  46     -11.403 -14.491 -36.335  0.00  0.00    +0.000 HD
ENDBRANCH11031114
BRANCH11021116
ATOM   1116  O3' U   B  46     -10.985 -11.728 -35.428  0.00  0.00    +0.000 OA
BRANCH11161117
ATOM   1117  P   U   B  47      -9.908 -10.793 -34.705  0.00  0.00    +0.000 P 
ATOM   1118  OP2 U   B  47      -9.587  -9.658 -35.612  0.00  0.00    +0.000 OA
BRANCH11171119
ATOM   1119  OP1 U   B  47     -10.372 -10.523 -33.320  0.00  0.00    +0.000 OA
ATOM   1120  H   U   B  47     -11.152  -9.947 -33.347  0.00  0.00    +0.000 HD
ENDBRANCH11171119
BRANCH11171121
ATOM   1121  O5' U   B  47      -8.628 -11.741 -34.625  0.00  0.00    +0.000 OA
BRANCH11211122
ATOM   1122  C5' U   B  47      -8.653 -12.940 -33.857  0.00  0.00    +0.000 C 
BRANCH11221123
ATOM   1123  C4' U   B  47      -7.410 -13.768 -34.089  0.00  0.00    +0.000 C 
ATOM   1124  O4' U   B  47      -7.335 -14.189 -35.479  0.00  0.00    +0.000 OA
ATOM   1125  C3' U   B  47      -6.088 -13.063 -33.858  0.00  0.00    +0.000 C 
ATOM   1126  C2' U   B  47      -5.123 -13.946 -34.642  0.00  0.00    +0.000 C 
ATOM   1127  C1' U   B  47      -5.977 -14.305 -35.866  0.00  0.00    +0.000 C 
BRANCH11271128
ATOM   1128  N1  U   B  47      -5.721 -13.411 -37.018  0.00  0.00    +0.000 N 
ATOM   1129  C2  U   B  47      -4.623 -13.706 -37.816  0.00  0.00    +0.000 A 
ATOM   1130  O2  U   B  47      -3.884 -14.655 -37.606  0.00  0.00    +0.000 OA
ATOM   1131  N3  U   B  47      -4.419 -12.849 -38.876  0.00  0.00    +0.000 N 
ATOM   1132  C4  U   B  47      -5.183 -11.747 -39.206  0.00  0.00    +0.000 A 
ATOM   1133  O4  U   B  47      -4.871 -11.072 -40.191  0.00  0.00    +0.000 OA
ATOM   1134  C5  U   B  47      -6.293 -11.507 -38.332  0.00  0.00    +0.000 A 
ATOM   1135  C6  U   B  47      -6.517 -12.325 -37.295  0.00  0.00    +0.000 A 
ATOM   1136  H   U   B  47      -3.649 -13.043 -39.458  0.00  0.00    +0.000 HD
ENDBRANCH11271128
BRANCH11261137
ATOM   1137  O2' U   B  47      -4.793 -15.129 -33.939  0.00  0.00    +0.000 OA
ATOM   1138  H   U   B  47      -5.605 -15.612 -33.720  0.00  0.00    +0.000 HD
ENDBRANCH11261137
BRANCH11251139
ATOM   1139  O3' U   B  47      -5.761 -12.958 -32.477  0.00  0.00    +0.000 OA
BRANCH11391140
ATOM   1140  P   A   B  48      -4.874 -11.730 -31.937  0.00  0.00    +0.000 P 
ATOM   1141  OP2 A   B  48      -5.277 -10.500 -32.663  0.00  0.00    +0.000 OA
BRANCH11401142
ATOM   1142  OP1 A   B  48      -4.901 -11.752 -30.453  0.00  0.00    +0.000 OA
ATOM   1143  H   A   B  48      -5.789 -11.515 -30.142  0.00  0.00    +0.000 HD
ENDBRANCH11401142
BRANCH11401144
ATOM   1144  O5' A   B  48      -3.401 -12.124 -32.413  0.00  0.00    +0.000 OA
BRANCH11441145
ATOM   1145  C5' A   B  48      -2.754 -13.280 -31.890  0.00  0.00    +0.000 C 
BRANCH11451146
ATOM   1146  C4' A   B  48      -1.498 -13.599 -32.670  0.00  0.00    +0.000 C 
ATOM   1147  O4' A   B  48      -1.831 -13.903 -34.050  0.00  0.00    +0.000 OA
ATOM   1148  C3' A   B  48      -0.484 -12.475 -32.781  0.00  0.00    +0.000 C 
ATOM   1149  C2' A   B  48       0.324 -12.909 -33.997  0.00  0.00    +0.000 C 
ATOM   1150  C1' A   B  48      -0.772 -13.489 -34.894  0.00  0.00    +0.000 C 
BRANCH11501151
ATOM   1151  N9  A   B  48      -1.290 -12.499 -35.855  0.00  0.00    +0.000 N 
ATOM   1152  C8  A   B  48      -2.421 -11.726 -35.763  0.00  0.00    +0.000 A 
ATOM   1153  N7  A   B  48      -2.607 -10.940 -36.799  0.00  0.00    +0.000 NA
ATOM   1154  C5  A   B  48      -1.526 -11.209 -37.627  0.00  0.00    +0.000 A 
ATOM   1155  C6  A   B  48      -1.139 -10.705 -38.879  0.00  0.00    +0.000 A 
ATOM   1156  N1  A   B  48      -0.005 -11.188 -39.430  0.00  0.00    +0.000 NA
ATOM   1157  C2  A   B  48       0.691 -12.116 -38.760  0.00  0.00    +0.000 A 
ATOM   1158  N3  A   B  48       0.428 -12.673 -37.577  0.00  0.00    +0.000 NA
ATOM   1159  C4  A   B  48      -0.706 -12.169 -37.057  0.00  0.00    +0.000 A 
BRANCH11551160
ATOM   1160  N6  A   B  48      -1.831  -9.774 -39.550  0.00  0.00    +0.000 N 
ATOM   1161  H   A   B  48      -1.510  -9.458 -40.426  0.00  0.00    +0.000 HD
ATOM   1162  H   A   B  48      -2.660  -9.406 -39.167  0.00  0.00    +0.000 HD
ENDBRANCH11551160
ENDBRANCH11501151
BRANCH11491163
ATOM   1163  O2' A   B  48       1.256 -13.927 -33.681  0.00  0.00    +0.000 OA
ATOM   1164  H   A   B  48       0.790 -14.681 -33.288  0.00  0.00    +0.000 HD
ENDBRANCH11491163
BRANCH11481165
ATOM   1165  O3' A   B  48       0.306 -12.329 -31.606  0.00  0.00    +0.000 OA
BRANCH11651166
ATOM   1166  P   U   B  49       0.876 -10.889 -31.178  0.00  0.00    +0.000 P 
ATOM   1167  OP2 U   B  49      -0.161  -9.861 -31.455  0.00  0.00    +0.000 OA
BRANCH11661168
ATOM   1168  OP1 U   B  49       1.446 -11.011 -29.811  0.00  0.00    +0.000 OA
ATOM   1169  H   U   B  49       2.105 -11.723 -29.798  0.00  0.00    +0.000 HD
ENDBRANCH11661168
BRANCH11661170
ATOM   1170  O5' U   B  49       2.080 -10.663 -32.203  0.00  0.00    +0.000 OA
BRANCH11701171
ATOM   1171  C5' U   B  49       3.226 -11.510 -32.193  0.00  0.00    +0.000 C 
BRANCH11711172
ATOM   1172  C4' U   B  49       4.065 -11.317 -33.437  0.00  0.00    +0.000 C 
ATOM   1173  O4' U   B  49       3.274 -11.613 -34.622  0.00  0.00    +0.000 OA
ATOM   1174  C3' U   B  49       4.576  -9.910 -33.682  0.00  0.00    +0.000 C 
ATOM   1175  C2' U   B  49       4.874  -9.945 -35.176  0.00  0.00    +0.000 C 
ATOM   1176  C1' U   B  49       3.702 -10.791 -35.694  0.00  0.00    +0.000 C 
BRANCH11761177
ATOM   1177  N1  U   B  49       2.565  -9.956 -36.149  0.00  0.00    +0.000 N 
ATOM   1178  C2  U   B  49       2.631  -9.433 -37.433  0.00  0.00    +0.000 A 
ATOM   1179  O2  U   B  49       3.570  -9.636 -38.185  0.00  0.00    +0.000 OA
ATOM   1180  N3  U   B  49       1.553  -8.664 -37.812  0.00  0.00    +0.000 N 
ATOM   1181  C4  U   B  49       0.442  -8.364 -37.051  0.00  0.00    +0.000 A 
ATOM   1182  O4  U   B  49      -0.446  -7.655 -37.530  0.00  0.00    +0.000 OA
ATOM   1183  C5  U   B  49       0.449  -8.936 -35.737  0.00  0.00    +0.000 A 
ATOM   1184  C6  U   B  49       1.484  -9.691 -35.341  0.00  0.00    +0.000 A 
ATOM   1185  H   U   B  49       1.578  -8.289 -38.722  0.00  0.00    +0.000 HD
ENDBRANCH11761177
BRANCH11751186
ATOM   1186  O2' U   B  49       6.089 -10.610 -35.466  0.00  0.00    +0.000 OA
ATOM   1187  H   U   B  49       6.061 -11.508 -35.100  0.00  0.00    +0.000 HD
ENDBRANCH11751186
BRANCH11741188
ATOM   1188  O3' U   B  49       5.715  -9.592 -32.891  0.00  0.00    +0.000 OA
BRANCH11881189
ATOM   1189  P   U   B  50       5.993  -8.066 -32.439  0.00  0.00    +0.000 P 
ATOM   1190  OP2 U   B  50       4.703  -7.436 -32.054  0.00  0.00    +0.000 OA
BRANCH11891191
ATOM   1191  OP1 U   B  50       7.123  -8.080 -31.473  0.00  0.00    +0.000 OA
ATOM   1192  H   U   B  50       7.886  -8.524 -31.874  0.00  0.00    +0.000 HD
ENDBRANCH11891191
BRANCH11891193
ATOM   1193  O5' U   B  50       6.499  -7.377 -33.788  0.00  0.00    +0.000 OA
BRANCH11931194
ATOM   1194  C5' U   B  50       7.726  -7.761 -34.403  0.00  0.00    +0.000 C 
BRANCH11941195
ATOM   1195  C4' U   B  50       7.849  -7.187 -35.798  0.00  0.00    +0.000 C 
ATOM   1196  O4' U   B  50       6.739  -7.643 -36.622  0.00  0.00    +0.000 OA
ATOM   1197  C3' U   B  50       7.787  -5.674 -35.905  0.00  0.00    +0.000 C 
ATOM   1198  C2' U   B  50       7.399  -5.482 -37.366  0.00  0.00    +0.000 C 
ATOM   1199  C1' U   B  50       6.410  -6.637 -37.566  0.00  0.00    +0.000 C 
BRANCH11991200
ATOM   1200  N1  U   B  50       5.004  -6.219 -37.359  0.00  0.00    +0.000 N 
ATOM   1201  C2  U   B  50       4.367  -5.573 -38.411  0.00  0.00    +0.000 A 
ATOM   1202  O2  U   B  50       4.911  -5.345 -39.477  0.00  0.00    +0.000 OA
ATOM   1203  N3  U   B  50       3.061  -5.205 -38.171  0.00  0.00    +0.000 N 
ATOM   1204  C4  U   B  50       2.343  -5.406 -37.011  0.00  0.00    +0.000 A 
ATOM   1205  O4  U   B  50       1.175  -5.016 -36.944  0.00  0.00    +0.000 OA
ATOM   1206  C5  U   B  50       3.068  -6.074 -35.972  0.00  0.00    +0.000 A 
ATOM   1207  C6  U   B  50       4.340  -6.448 -36.176  0.00  0.00    +0.000 A 
ATOM   1208  H   U   B  50       2.590  -4.750 -38.906  0.00  0.00    +0.000 HD
ENDBRANCH11991200
BRANCH11981209
ATOM   1209  O2' U   B  50       8.499  -5.657 -38.240  0.00  0.00    +0.000 OA
ATOM   1210  H   U   B  50       8.887  -6.535 -38.099  0.00  0.00    +0.000 HD
ENDBRANCH11981209
BRANCH11971211
ATOM   1211  O3' U   B  50       9.019  -5.048 -35.566  0.00  0.00    +0.000 OA
BRANCH12111212
ATOM   1212  P   U   B  51       9.035  -3.536 -34.981  0.00  0.00    +0.000 P 
ATOM   1213  OP1 U   B  51      10.420  -3.242 -34.538  0.00  0.00    +0.000 OA
BRANCH12121214
ATOM   1214  OP2 U   B  51       7.905  -3.379 -34.024  0.00  0.00    +0.000 OA
ATOM   1215  H   U   B  51       7.073  -3.609 -34.466  0.00  0.00    +0.000 HD
ENDBRANCH12121214
BRANCH12121216
ATOM   1216  O5' U   B  51       8.721  -2.642 -36.265  0.00  0.00    +0.000 OA
BRANCH12161217
ATOM   1217  C5' U   B  51       9.626  -2.579 -37.366  0.00  0.00    +0.000 C 
BRANCH12171218
ATOM   1218  C4' U   B  51       9.009  -1.865 -38.547  0.00  0.00    +0.000 C 
ATOM   1219  O4' U   B  51       7.810  -2.566 -38.981  0.00  0.00    +0.000 OA
ATOM   1220  C3' U   B  51       8.532  -0.448 -38.291  0.00  0.00    +0.000 C 
ATOM   1221  C2' U   B  51       7.528  -0.245 -39.421  0.00  0.00    +0.000 C 
ATOM   1222  C1' U   B  51       6.873  -1.631 -39.493  0.00  0.00    +0.000 C 
BRANCH12221223
ATOM   1223  N1  U   B  51       5.625  -1.717 -38.698  0.00  0.00    +0.000 N 
ATOM   1224  C2  U   B  51       4.466  -1.205 -39.269  0.00  0.00    +0.000 A 
ATOM   1225  O2  U   B  51       4.440  -0.696 -40.377  0.00  0.00    +0.000 OA
ATOM   1226  N3  U   B  51       3.333  -1.313 -38.493  0.00  0.00    +0.000 N 
ATOM   1227  C4  U   B  51       3.240  -1.862 -37.229  0.00  0.00    +0.000 A 
ATOM   1228  O4  U   B  51       2.150  -1.886 -36.657  0.00  0.00    +0.000 OA
ATOM   1229  C5  U   B  51       4.478  -2.364 -36.709  0.00  0.00    +0.000 A 
ATOM   1230  C6  U   B  51       5.598  -2.276 -37.441  0.00  0.00    +0.000 A 
ATOM   1231  H   U   B  51       2.500  -0.961 -38.881  0.00  0.00    +0.000 HD
ENDBRANCH12221223
BRANCH12211232
ATOM   1232  O2' U   B  51       8.163   0.032 -40.655  0.00  0.00    +0.000 OA
ATOM   1233  H   U   B  51       8.783  -0.683 -40.868  0.00  0.00    +0.000 HD
ENDBRANCH12211232
BRANCH12201234
ATOM   1234  O3' U   B  51       9.598   0.498 -38.312  0.00  0.00    +0.000 OA
BRANCH12341235
ATOM   1235  P   U   B  52       9.511   1.857 -37.442  0.00  0.00    +0.000 P 
ATOM   1236  OP1 U   B  52      10.833   2.523 -37.509  0.00  0.00    +0.000 OA
BRANCH12351237
ATOM   1237  OP2 U   B  52       8.917   1.531 -36.116  0.00  0.00    +0.000 OA
ATOM   1238  H   U   B  52       8.057   1.101 -36.244  0.00  0.00    +0.000 HD
ENDBRANCH12351237
BRANCH12351239
ATOM   1239  O5' U   B  52       8.459   2.748 -38.248  0.00  0.00    +0.000 OA
BRANCH12391240
ATOM   1240  C5' U   B  52       8.743   3.219 -39.563  0.00  0.00    +0.000 C 
BRANCH12401241
ATOM   1241  C4' U   B  52       7.517   3.823 -40.212  0.00  0.00    +0.000 C 
ATOM   1242  O4' U   B  52       6.474   2.818 -40.333  0.00  0.00    +0.000 OA
ATOM   1243  C3' U   B  52       6.851   4.953 -39.449  0.00  0.00    +0.000 C 
ATOM   1244  C2' U   B  52       5.445   4.943 -40.038  0.00  0.00    +0.000 C 
ATOM   1245  C1' U   B  52       5.203   3.436 -40.202  0.00  0.00    +0.000 C 
BRANCH12451246
ATOM   1246  N1  U   B  52       4.495   2.841 -39.044  0.00  0.00    +0.000 N 
ATOM   1247  C2  U   B  52       3.112   2.978 -38.999  0.00  0.00    +0.000 A 
ATOM   1248  O2  U   B  52       2.473   3.555 -39.864  0.00  0.00    +0.000 OA
ATOM   1249  N3  U   B  52       2.501   2.407 -37.903  0.00  0.00    +0.000 N 
ATOM   1250  C4  U   B  52       3.117   1.734 -36.866  0.00  0.00    +0.000 A 
ATOM   1251  O4  U   B  52       2.433   1.278 -35.949  0.00  0.00    +0.000 OA
ATOM   1252  C5  U   B  52       4.543   1.639 -36.982  0.00  0.00    +0.000 A 
ATOM   1253  C6  U   B  52       5.166   2.183 -38.039  0.00  0.00    +0.000 A 
ATOM   1254  H   U   B  52       1.521   2.488 -37.854  0.00  0.00    +0.000 HD
ENDBRANCH12451246
BRANCH12441255
ATOM   1255  O2' U   B  52       5.392   5.563 -41.308  0.00  0.00    +0.000 OA
ATOM   1256  H   U   B  52       6.020   5.128 -41.906  0.00  0.00    +0.000 HD
ENDBRANCH12441255
BRANCH12431257
ATOM   1257  O3' U   B  52       7.525   6.198 -39.618  0.00  0.00    +0.000 OA
BRANCH12571258
ATOM   1258  P   A   B  53       7.485   7.324 -38.456  0.00  0.00    +0.000 P 
ATOM   1259  OP1 A   B  53       8.423   8.408 -38.833  0.00  0.00    +0.000 OA
BRANCH12581260
ATOM   1260  OP2 A   B  53       7.636   6.643 -37.142  0.00  0.00    +0.000 OA
ATOM   1261  H   A   B  53       8.535   6.286 -37.064  0.00  0.00    +0.000 HD
ENDBRANCH12581260
BRANCH12581262
ATOM   1262  O5' A   B  53       5.995   7.896 -38.545  0.00  0.00    +0.000 OA
BRANCH12621263
ATOM   1263  C5' A   B  53       5.560   8.629 -39.689  0.00  0.00    +0.000 C 
BRANCH12631264
ATOM   1264  C4' A   B  53       4.068   8.877 -39.643  0.00  0.00    +0.000 C 
ATOM   1265  O4' A   B  53       3.353   7.613 -39.656  0.00  0.00    +0.000 OA
ATOM   1266  C3' A   B  53       3.551   9.580 -38.398  0.00  0.00    +0.000 C 
ATOM   1267  C2' A   B  53       2.080   9.181 -38.404  0.00  0.00    +0.000 C 
ATOM   1268  C1' A   B  53       2.164   7.733 -38.892  0.00  0.00    +0.000 C 
BRANCH12681269
ATOM   1269  N9  A   B  53       2.216   6.765 -37.784  0.00  0.00    +0.000 N 
ATOM   1270  C8  A   B  53       3.312   6.120 -37.266  0.00  0.00    +0.000 A 
ATOM   1271  N7  A   B  53       3.025   5.307 -36.273  0.00  0.00    +0.000 NA
ATOM   1272  C5  A   B  53       1.649   5.424 -36.127  0.00  0.00    +0.000 A 
ATOM   1273  C6  A   B  53       0.732   4.822 -35.250  0.00  0.00    +0.000 A 
ATOM   1274  N6  A   B  53       1.084   3.939 -34.304  0.00  0.00    +0.000 N 
ATOM   1275  N1  A   B  53      -0.570   5.159 -35.368  0.00  0.00    +0.000 NA
ATOM   1276  C2  A   B  53      -0.924   6.043 -36.311  0.00  0.00    +0.000 A 
ATOM   1277  N3  A   B  53      -0.155   6.677 -37.200  0.00  0.00    +0.000 NA
ATOM   1278  C4  A   B  53       1.136   6.320 -37.052  0.00  0.00    +0.000 A 
ATOM   1279  H   A   B  53       2.028   3.679 -34.200  0.00  0.00    +0.000 HD
ATOM   1280  H   A   B  53       0.399   3.551 -33.713  0.00  0.00    +0.000 HD
ENDBRANCH12681269
BRANCH12671281
ATOM   1281  O2' A   B  53       1.325   9.945 -39.325  0.00  0.00    +0.000 OA
ATOM   1282  H   A   B  53       1.711   9.857 -40.211  0.00  0.00    +0.000 HD
ENDBRANCH12671281
BRANCH12661283
ATOM   1283  O3' A   B  53       3.755  10.990 -38.443  0.00  0.00    +0.000 OA
BRANCH12831284
ATOM   1284  P   A   B  54       3.973  11.850 -37.084  0.00  0.00    +0.000 P 
ATOM   1285  OP1 A   B  54       4.388  13.221 -37.464  0.00  0.00    +0.000 OA
BRANCH12841286
ATOM   1286  OP2 A   B  54       4.827  11.048 -36.167  0.00  0.00    +0.000 OA
ATOM   1287  H   A   B  54       5.723  10.984 -36.533  0.00  0.00    +0.000 HD
ENDBRANCH12841286
BRANCH12841288
ATOM   1288  O5' A   B  54       2.507  11.932 -36.447  0.00  0.00    +0.000 OA
BRANCH12881289
ATOM   1289  C5' A   B  54       1.470  12.668 -37.093  0.00  0.00    +0.000 C 
BRANCH12891290
ATOM   1290  C4' A   B  54       0.117  12.357 -36.489  0.00  0.00    +0.000 C 
ATOM   1291  O4' A   B  54      -0.160  10.934 -36.607  0.00  0.00    +0.000 OA
ATOM   1292  C3' A   B  54      -0.026  12.635 -35.001  0.00  0.00    +0.000 C 
ATOM   1293  C2' A   B  54      -1.198  11.737 -34.630  0.00  0.00    +0.000 C 
ATOM   1294  C1' A   B  54      -0.907  10.501 -35.483  0.00  0.00    +0.000 C 
BRANCH12941295
ATOM   1295  N9  A   B  54      -0.121   9.491 -34.753  0.00  0.00    +0.000 N 
ATOM   1296  C8  A   B  54       1.229   9.250 -34.821  0.00  0.00    +0.000 A 
ATOM   1297  N7  A   B  54       1.628   8.272 -34.038  0.00  0.00    +0.000 NA
ATOM   1298  C5  A   B  54       0.465   7.842 -33.413  0.00  0.00    +0.000 A 
ATOM   1299  C6  A   B  54       0.210   6.834 -32.468  0.00  0.00    +0.000 A 
ATOM   1300  N6  A   B  54       1.163   6.040 -31.959  0.00  0.00    +0.000 N 
ATOM   1301  N1  A   B  54      -1.063   6.667 -32.049  0.00  0.00    +0.000 NA
ATOM   1302  C2  A   B  54      -2.016   7.461 -32.552  0.00  0.00    +0.000 A 
ATOM   1303  N3  A   B  54      -1.904   8.443 -33.451  0.00  0.00    +0.000 NA
ATOM   1304  C4  A   B  54      -0.622   8.584 -33.844  0.00  0.00    +0.000 A 
ATOM   1305  H   A   B  54       2.098   6.144 -32.250  0.00  0.00    +0.000 HD
ATOM   1306  H   A   B  54       0.928   5.353 -31.294  0.00  0.00    +0.000 HD
ENDBRANCH12941295
BRANCH12931307
ATOM   1307  O2' A   B  54      -2.441  12.292 -35.017  0.00  0.00    +0.000 OA
ATOM   1308  H   A   B  54      -2.432  12.471 -35.970  0.00  0.00    +0.000 HD
ENDBRANCH12931307
BRANCH12921309
ATOM   1309  O3' A   B  54      -0.259  14.011 -34.719  0.00  0.00    +0.000 OA
BRANCH13091310
ATOM   1310  P   A   B  55       0.238  14.681 -33.331  0.00  0.00    +0.000 P 
ATOM   1311  OP1 A   B  55      -0.005  16.142 -33.402  0.00  0.00    +0.000 OA
BRANCH13101312
ATOM   1312  OP2 A   B  55       1.608  14.176 -33.046  0.00  0.00    +0.000 OA
ATOM   1313  H   A   B  55       2.228  14.535 -33.700  0.00  0.00    +0.000 HD
ENDBRANCH13101312
BRANCH13101314
ATOM   1314  O5' A   B  55      -0.752  14.067 -32.232  0.00  0.00    +0.000 OA
BRANCH13141315
ATOM   1315  C5' A   B  55      -2.137  14.407 -32.224  0.00  0.00    +0.000 C 
BRANCH13151316
ATOM   1316  C4' A   B  55      -2.918  13.513 -31.285  0.00  0.00    +0.000 C 
ATOM   1317  O4' A   B  55      -2.756  12.122 -31.680  0.00  0.00    +0.000 OA
ATOM   1318  C3' A   B  55      -2.479  13.531 -29.828  0.00  0.00    +0.000 C 
ATOM   1319  C2' A   B  55      -3.030  12.205 -29.324  0.00  0.00    +0.000 C 
ATOM   1320  C1' A   B  55      -2.770  11.297 -30.528  0.00  0.00    +0.000 C 
BRANCH13201321
ATOM   1321  N9  A   B  55      -1.479  10.595 -30.430  0.00  0.00    +0.000 N 
ATOM   1322  C8  A   B  55      -0.290  10.901 -31.047  0.00  0.00    +0.000 A 
ATOM   1323  N7  A   B  55       0.685  10.071 -30.750  0.00  0.00    +0.000 NA
ATOM   1324  C5  A   B  55       0.102   9.160 -29.878  0.00  0.00    +0.000 A 
ATOM   1325  C6  A   B  55       0.603   8.033 -29.202  0.00  0.00    +0.000 A 
ATOM   1326  N6  A   B  55       1.871   7.616 -29.305  0.00  0.00    +0.000 N 
ATOM   1327  N1  A   B  55      -0.245   7.345 -28.408  0.00  0.00    +0.000 NA
ATOM   1328  C2  A   B  55      -1.513   7.762 -28.302  0.00  0.00    +0.000 A 
ATOM   1329  N3  A   B  55      -2.107   8.805 -28.888  0.00  0.00    +0.000 NA
ATOM   1330  C4  A   B  55      -1.231   9.471 -29.672  0.00  0.00    +0.000 A 
ATOM   1331  H   A   B  55       2.505   8.104 -29.879  0.00  0.00    +0.000 HD
ATOM   1332  H   A   B  55       2.170   6.821 -28.807  0.00  0.00    +0.000 HD
ENDBRANCH13201321
BRANCH13191333
ATOM   1333  O2' A   B  55      -4.421  12.264 -29.070  0.00  0.00    +0.000 OA
ATOM   1334  H   A   B  55      -4.885  12.545 -29.874  0.00  0.00    +0.000 HD
ENDBRANCH13191333
BRANCH13181335
ATOM   1335  O3' A   B  55      -2.984  14.658 -29.119  0.00  0.00    +0.000 OA
BRANCH13351336
ATOM   1336  P   A   B  56      -2.176  15.311 -27.891  0.00  0.00    +0.000 P 
ATOM   1337  OP2 A   B  56      -0.738  15.362 -28.267  0.00  0.00    +0.000 OA
BRANCH13361338
ATOM   1338  OP1 A   B  56      -2.872  16.553 -27.477  0.00  0.00    +0.000 OA
ATOM   1339  H   A   B  56      -2.785  17.221 -28.175  0.00  0.00    +0.000 HD
ENDBRANCH13361338
BRANCH13361340
ATOM   1340  O5' A   B  56      -2.340  14.235 -26.720  0.00  0.00    +0.000 OA
BRANCH13401341
ATOM   1341  C5' A   B  56      -3.613  13.994 -26.124  0.00  0.00    +0.000 C 
BRANCH13411342
ATOM   1342  C4' A   B  56      -3.578  12.767 -25.236  0.00  0.00    +0.000 C 
ATOM   1343  O4' A   B  56      -3.156  11.609 -26.012  0.00  0.00    +0.000 OA
ATOM   1344  C3' A   B  56      -2.592  12.808 -24.078  0.00  0.00    +0.000 C 
ATOM   1345  C2' A   B  56      -2.406  11.327 -23.775  0.00  0.00    +0.000 C 
ATOM   1346  C1' A   B  56      -2.418  10.727 -25.184  0.00  0.00    +0.000 C 
BRANCH13461347
ATOM   1347  N9  A   B  56      -1.064  10.567 -25.740  0.00  0.00    +0.000 N 
ATOM   1348  C8  A   B  56      -0.405  11.377 -26.633  0.00  0.00    +0.000 A 
ATOM   1349  N7  A   B  56       0.802  10.954 -26.938  0.00  0.00    +0.000 NA
ATOM   1350  C5  A   B  56       0.952   9.792 -26.196  0.00  0.00    +0.000 A 
ATOM   1351  C6  A   B  56       2.005   8.868 -26.073  0.00  0.00    +0.000 A 
ATOM   1352  N1  A   B  56       1.828   7.815 -25.245  0.00  0.00    +0.000 NA
ATOM   1353  C2  A   B  56       0.669   7.699 -24.586  0.00  0.00    +0.000 A 
ATOM   1354  N3  A   B  56      -0.402   8.500 -24.619  0.00  0.00    +0.000 NA
ATOM   1355  C4  A   B  56      -0.191   9.539 -25.453  0.00  0.00    +0.000 A 
BRANCH13511356
ATOM   1356  N6  A   B  56       3.167   8.983 -26.730  0.00  0.00    +0.000 N 
ATOM   1357  H   A   B  56       3.316   9.743 -27.338  0.00  0.00    +0.000 HD
ATOM   1358  H   A   B  56       3.872   8.308 -26.605  0.00  0.00    +0.000 HD
ENDBRANCH13511356
ENDBRANCH13461347
BRANCH13451359
ATOM   1359  O2' A   B  56      -3.484  10.794 -23.027  0.00  0.00    +0.000 OA
ATOM   1360  H   A   B  56      -4.315  10.945 -23.504  0.00  0.00    +0.000 HD
ENDBRANCH13451359
BRANCH13441361
ATOM   1361  O3' A   B  56      -3.091  13.548 -22.967  0.00  0.00    +0.000 OA
BRANCH13611362
ATOM   1362  P   A   B  57      -2.109  14.327 -21.958  0.00  0.00    +0.000 P 
ATOM   1363  OP2 A   B  57      -1.032  14.968 -22.762  0.00  0.00    +0.000 OA
BRANCH13621364
ATOM   1364  OP1 A   B  57      -2.929  15.157 -21.041  0.00  0.00    +0.000 OA
ATOM   1365  H   A   B  57      -3.338  15.881 -21.540  0.00  0.00    +0.000 HD
ENDBRANCH13621364
BRANCH13621366
ATOM   1366  O5' A   B  57      -1.448  13.143 -21.108  0.00  0.00    +0.000 OA
BRANCH13661367
ATOM   1367  C5' A   B  57      -2.229  12.354 -20.218  0.00  0.00    +0.000 C 
BRANCH13671368
ATOM   1368  C4' A   B  57      -1.409  11.213 -19.645  0.00  0.00    +0.000 C 
ATOM   1369  O4' A   B  57      -0.936  10.367 -20.733  0.00  0.00    +0.000 OA
ATOM   1370  C3' A   B  57      -0.141  11.615 -18.907  0.00  0.00    +0.000 C 
ATOM   1371  C2' A   B  57       0.712  10.351 -19.013  0.00  0.00    +0.000 C 
ATOM   1372  C1' A   B  57       0.328   9.824 -20.403  0.00  0.00    +0.000 C 
BRANCH13721373
ATOM   1373  N9  A   B  57       1.293  10.197 -21.450  0.00  0.00    +0.000 N 
ATOM   1374  C8  A   B  57       1.294  11.313 -22.247  0.00  0.00    +0.000 A 
ATOM   1375  N7  A   B  57       2.297  11.355 -23.097  0.00  0.00    +0.000 NA
ATOM   1376  C5  A   B  57       3.005  10.189 -22.842  0.00  0.00    +0.000 A 
ATOM   1377  C6  A   B  57       4.174   9.639 -23.403  0.00  0.00    +0.000 A 
ATOM   1378  N1  A   B  57       4.612   8.456 -22.919  0.00  0.00    +0.000 NA
ATOM   1379  C2  A   B  57       3.921   7.865 -21.936  0.00  0.00    +0.000 A 
ATOM   1380  N3  A   B  57       2.808   8.280 -21.325  0.00  0.00    +0.000 NA
ATOM   1381  C4  A   B  57       2.398   9.463 -21.831  0.00  0.00    +0.000 A 
BRANCH13771382
ATOM   1382  N6  A   B  57       4.869  10.229 -24.387  0.00  0.00    +0.000 N 
ATOM   1383  H   A   B  57       5.680   9.799 -24.742  0.00  0.00    +0.000 HD
ATOM   1384  H   A   B  57       4.568  11.092 -24.754  0.00  0.00    +0.000 HD
ENDBRANCH13771382
ENDBRANCH13721373
BRANCH13711385
ATOM   1385  O2' A   B  57       0.365   9.390 -18.028  0.00  0.00    +0.000 OA
ATOM   1386  H   A   B  57      -0.577   9.174 -18.105  0.00  0.00    +0.000 HD
ENDBRANCH13711385
BRANCH13701387
ATOM   1387  O3' A   B  57      -0.403  11.982 -17.553  0.00  0.00    +0.000 OA
BRANCH13871388
ATOM   1388  P   C   B  58      -0.485  13.520 -17.135  0.00  0.00    +0.000 P 
ATOM   1389  OP2 C   B  58       0.511  14.283 -17.921  0.00  0.00    +0.000 OA
BRANCH13881390
ATOM   1390  OP1 C   B  58      -1.921  13.919 -17.202  0.00  0.00    +0.000 OA
ATOM   1391  H   C   B  58      -2.213  13.921 -18.127  0.00  0.00    +0.000 HD
ENDBRANCH13881390
BRANCH13881392
ATOM   1392  O5' C   B  58      -0.051  13.531 -15.600  0.00  0.00    +0.000 OA
BRANCH13921393
ATOM   1393  C5' C   B  58       1.310  13.427 -15.215  0.00  0.00    +0.000 C 
BRANCH13931394
ATOM   1394  C4' C   B  58       1.476  12.673 -13.912  0.00  0.00    +0.000 C 
ATOM   1395  O4' C   B  58       1.013  13.501 -12.804  0.00  0.00    +0.000 OA
ATOM   1396  C3' C   B  58       0.707  11.357 -13.821  0.00  0.00    +0.000 C 
ATOM   1397  C2' C   B  58      -0.500  11.720 -12.960  0.00  0.00    +0.000 C 
ATOM   1398  C1' C   B  58       0.093  12.767 -12.015  0.00  0.00    +0.000 C 
BRANCH13981399
ATOM   1399  N1  C   B  58      -0.906  13.693 -11.445  0.00  0.00    +0.000 N 
ATOM   1400  C2  C   B  58      -1.139  13.669 -10.059  0.00  0.00    +0.000 A 
ATOM   1401  O2  C   B  58      -0.499  12.874  -9.350  0.00  0.00    +0.000 OA
ATOM   1402  N3  C   B  58      -2.061  14.517  -9.531  0.00  0.00    +0.000 NA
ATOM   1403  C4  C   B  58      -2.724  15.361 -10.325  0.00  0.00    +0.000 A 
ATOM   1404  N4  C   B  58      -3.621  16.177  -9.758  0.00  0.00    +0.000 N 
ATOM   1405  C5  C   B  58      -2.508  15.397 -11.737  0.00  0.00    +0.000 A 
ATOM   1406  C6  C   B  58      -1.594  14.555 -12.248  0.00  0.00    +0.000 A 
ATOM   1407  H   C   B  58      -4.128  16.812 -10.313  0.00  0.00    +0.000 HD
ATOM   1408  H   C   B  58      -3.773  16.142  -8.786  0.00  0.00    +0.000 HD
ENDBRANCH13981399
BRANCH13971409
ATOM   1409  O2' C   B  58      -1.059  10.642 -12.246  0.00  0.00    +0.000 OA
ATOM   1410  H   C   B  58      -0.385  10.254 -11.666  0.00  0.00    +0.000 HD
ENDBRANCH13971409
BRANCH13961411
ATOM   1411  O3' C   B  58       1.497  10.368 -13.149  0.00  0.00    +0.000 OA
BRANCH14111412
ATOM   1412  P   A   B  59       1.553   8.929 -13.768  0.00  0.00    +0.000 P 
ATOM   1413  OP1 A   B  59       0.164   8.406 -13.931  0.00  0.00    +0.000 OA
BRANCH14121414
ATOM   1414  OP2 A   B  59       2.534   8.133 -12.990  0.00  0.00    +0.000 OA
ATOM   1415  H   A   B  59       2.586   7.236 -13.356  0.00  0.00    +0.000 HD
ENDBRANCH14121414
BRANCH14121416
ATOM   1416  O5' A   B  59       2.171   9.207 -15.210  0.00  0.00    +0.000 OA
BRANCH14161417
ATOM   1417  C5' A   B  59       3.479   9.751 -15.335  0.00  0.00    +0.000 C 
BRANCH14171418
ATOM   1418  C4' A   B  59       4.435   8.678 -15.804  0.00  0.00    +0.000 C 
ATOM   1419  O4' A   B  59       4.148   8.345 -17.179  0.00  0.00    +0.000 OA
ATOM   1420  C3' A   B  59       5.909   9.070 -15.802  0.00  0.00    +0.000 C 
ATOM   1421  C2' A   B  59       6.489   8.148 -16.861  0.00  0.00    +0.000 C 
ATOM   1422  C1' A   B  59       5.347   8.091 -17.880  0.00  0.00    +0.000 C 
BRANCH14221423
ATOM   1423  N9  A   B  59       5.478   9.084 -18.954  0.00  0.00    +0.000 N 
ATOM   1424  C8  A   B  59       4.652  10.147 -19.221  0.00  0.00    +0.000 A 
ATOM   1425  N7  A   B  59       5.018  10.851 -20.273  0.00  0.00    +0.000 NA
ATOM   1426  C5  A   B  59       6.158  10.205 -20.728  0.00  0.00    +0.000 A 
ATOM   1427  C6  A   B  59       7.018  10.451 -21.808  0.00  0.00    +0.000 A 
ATOM   1428  N1  A   B  59       8.066   9.616 -21.984  0.00  0.00    +0.000 NA
ATOM   1429  C2  A   B  59       8.230   8.601 -21.126  0.00  0.00    +0.000 A 
ATOM   1430  N3  A   B  59       7.485   8.262 -20.070  0.00  0.00    +0.000 NA
ATOM   1431  C4  A   B  59       6.452   9.115 -19.927  0.00  0.00    +0.000 A 
BRANCH14271432
ATOM   1432  N6  A   B  59       6.851  11.471 -22.667  0.00  0.00    +0.000 N 
ATOM   1433  H   A   B  59       7.485  11.598 -23.409  0.00  0.00    +0.000 HD
ATOM   1434  H   A   B  59       6.095  12.091 -22.554  0.00  0.00    +0.000 HD
ENDBRANCH14271432
ENDBRANCH14221423
BRANCH14211435
ATOM   1435  O2' A   B  59       6.725   6.844 -16.348  0.00  0.00    +0.000 OA
ATOM   1436  H   A   B  59       5.900   6.485 -15.985  0.00  0.00    +0.000 HD
ENDBRANCH14211435
BRANCH14201437
ATOM   1437  O3' A   B  59       6.499   8.881 -14.523  0.00  0.00    +0.000 OA
BRANCH14371438
ATOM   1438  P   G   B  60       7.634   9.878 -13.946  0.00  0.00    +0.000 P 
ATOM   1439  OP2 G   B  60       7.343  11.252 -14.424  0.00  0.00    +0.000 OA
BRANCH14381440
ATOM   1440  OP1 G   B  60       7.795   9.629 -12.486  0.00  0.00    +0.000 OA
ATOM   1441  H   G   B  60       7.980   8.689 -12.337  0.00  0.00    +0.000 HD
ENDBRANCH14381440
BRANCH14381442
ATOM   1442  O5' G   B  60       8.942   9.361 -14.692  0.00  0.00    +0.000 OA
BRANCH14421443
ATOM   1443  C5' G   B  60       9.347   7.997 -14.590  0.00  0.00    +0.000 C 
BRANCH14431444
ATOM   1444  C4' G   B  60      10.481   7.691 -15.546  0.00  0.00    +0.000 C 
ATOM   1445  O4' G   B  60      10.124   8.141 -16.883  0.00  0.00    +0.000 OA
ATOM   1446  C3' G   B  60      11.810   8.365 -15.218  0.00  0.00    +0.000 C 
ATOM   1447  C2' G   B  60      11.799   9.587 -16.123  0.00  0.00    +0.000 C 
ATOM   1448  C1' G   B  60      11.108   9.032 -17.362  0.00  0.00    +0.000 C 
BRANCH14481449
ATOM   1449  N9  G   B  60      10.461  10.053 -18.197  0.00  0.00    +0.000 N 
ATOM   1450  C8  G   B  60       9.328  10.769 -17.911  0.00  0.00    +0.000 A 
ATOM   1451  N7  G   B  60       8.999  11.608 -18.858  0.00  0.00    +0.000 NA
ATOM   1452  C5  G   B  60       9.971  11.431 -19.833  0.00  0.00    +0.000 A 
ATOM   1453  C6  G   B  60      10.141  12.064 -21.089  0.00  0.00    +0.000 A 
ATOM   1454  O6  G   B  60       9.433  12.938 -21.614  0.00  0.00    +0.000 OA
ATOM   1455  N1  G   B  60      11.264  11.589 -21.759  0.00  0.00    +0.000 NA
ATOM   1456  C2  G   B  60      12.117  10.626 -21.276  0.00  0.00    +0.000 A 
ATOM   1457  N2  G   B  60      13.153  10.301 -22.068  0.00  0.00    +0.000 N 
ATOM   1458  N3  G   B  60      11.970  10.023 -20.103  0.00  0.00    +0.000 N 
ATOM   1459  C4  G   B  60      10.882  10.474 -19.438  0.00  0.00    +0.000 A 
ATOM   1460  H   G   B  60      13.265  10.746 -22.939  0.00  0.00    +0.000 HD
ATOM   1461  H   G   B  60      13.799   9.618 -21.777  0.00  0.00    +0.000 HD
ATOM   1462  H   G   B  60      12.579   9.331 -19.758  0.00  0.00    +0.000 HD
ENDBRANCH14481449
BRANCH14471463
ATOM   1463  O2' G   B  60      13.084  10.109 -16.434  0.00  0.00    +0.000 OA
ATOM   1464  H   G   B  60      13.617   9.421 -16.862  0.00  0.00    +0.000 HD
ENDBRANCH14471463
BRANCH14461465
ATOM   1465  O3' G   B  60      12.892   7.503 -15.585  0.00  0.00    +0.000 OA
BRANCH14651466
ATOM   1466  P   A   B  61      13.645   6.657 -14.498  0.00  0.00    +0.000 P 
ATOM   1467  OP1 A   B  61      13.993   5.367 -15.126  0.00  0.00    +0.000 OA
BRANCH14661468
ATOM   1468  OP2 A   B  61      12.895   6.675 -13.211  0.00  0.00    +0.000 OA
ATOM   1469  H   A   B  61      12.069   6.177 -13.311  0.00  0.00    +0.000 HD
ENDBRANCH14661468
BRANCH14661470
ATOM   1470  O5' A   B  61      14.989   7.481 -14.293  0.00  0.00    +0.000 OA
BRANCH14701471
ATOM   1471  C5' A   B  61      15.814   7.836 -15.400  0.00  0.00    +0.000 C 
BRANCH14711472
ATOM   1472  C4' A   B  61      17.230   8.072 -14.946  0.00  0.00    +0.000 C 
ATOM   1473  O4' A   B  61      17.255   9.124 -13.948  0.00  0.00    +0.000 OA
ATOM   1474  C3' A   B  61      17.893   6.893 -14.251  0.00  0.00    +0.000 C 
ATOM   1475  C2' A   B  61      18.956   7.574 -13.402  0.00  0.00    +0.000 C 
ATOM   1476  C1' A   B  61      18.210   8.825 -12.950  0.00  0.00    +0.000 C 
BRANCH14761477
ATOM   1477  N9  A   B  61      17.507   8.638 -11.670  0.00  0.00    +0.000 N 
ATOM   1478  C8  A   B  61      16.176   8.362 -11.477  0.00  0.00    +0.000 A 
ATOM   1479  N7  A   B  61      15.841   8.246 -10.211  0.00  0.00    +0.000 NA
ATOM   1480  C5  A   B  61      17.026   8.467  -9.525  0.00  0.00    +0.000 A 
ATOM   1481  C6  A   B  61      17.340   8.486  -8.155  0.00  0.00    +0.000 A 
ATOM   1482  N6  A   B  61      16.438   8.263  -7.189  0.00  0.00    +0.000 N 
ATOM   1483  N1  A   B  61      18.620   8.737  -7.809  0.00  0.00    +0.000 NA
ATOM   1484  C2  A   B  61      19.520   8.956  -8.779  0.00  0.00    +0.000 A 
ATOM   1485  N3  A   B  61      19.348   8.968 -10.100  0.00  0.00    +0.000 NA
ATOM   1486  C4  A   B  61      18.061   8.710 -10.412  0.00  0.00    +0.000 A 
ATOM   1487  H   A   B  61      15.500   8.078  -7.424  0.00  0.00    +0.000 HD
ATOM   1488  H   A   B  61      16.713   8.284  -6.244  0.00  0.00    +0.000 HD
ENDBRANCH14761477
BRANCH14751489
ATOM   1489  O2' A   B  61      20.095   7.947 -14.164  0.00  0.00    +0.000 OA
ATOM   1490  H   A   B  61      19.820   8.519 -14.898  0.00  0.00    +0.000 HD
ENDBRANCH14751489
BRANCH14741491
ATOM   1491  O3' A   B  61      18.427   5.956 -15.183  0.00  0.00    +0.000 OA
BRANCH14911492
ATOM   1492  P   C   B  62      18.353   4.386 -14.895  0.00  0.00    +0.000 P 
ATOM   1493  OP1 C   B  62      18.356   3.680 -16.203  0.00  0.00    +0.000 OA
BRANCH14921494
ATOM   1494  OP2 C   B  62      17.273   4.110 -13.912  0.00  0.00    +0.000 OA
ATOM   1495  H   C   B  62      16.410   4.271 -14.326  0.00  0.00    +0.000 HD
ENDBRANCH14921494
BRANCH14921496
ATOM   1496  O5' C   B  62      19.749   4.113 -14.186  0.00  0.00    +0.000 OA
BRANCH14961497
ATOM   1497  C5' C   B  62      20.972   4.492 -14.815  0.00  0.00    +0.000 C 
BRANCH14971498
ATOM   1498  C4' C   B  62      22.075   4.618 -13.798  0.00  0.00    +0.000 C 
ATOM   1499  O4' C   B  62      21.755   5.675 -12.854  0.00  0.00    +0.000 OA
ATOM   1500  C3' C   B  62      22.303   3.408 -12.913  0.00  0.00    +0.000 C 
ATOM   1501  C2' C   B  62      23.019   4.021 -11.715  0.00  0.00    +0.000 C 
ATOM   1502  C1' C   B  62      22.277   5.353 -11.577  0.00  0.00    +0.000 C 
BRANCH15021503
ATOM   1503  N1  C   B  62      21.159   5.290 -10.600  0.00  0.00    +0.000 N 
ATOM   1504  C2  C   B  62      21.425   5.586  -9.256  0.00  0.00    +0.000 A 
ATOM   1505  O2  C   B  62      22.584   5.896  -8.926  0.00  0.00    +0.000 OA
ATOM   1506  N3  C   B  62      20.415   5.529  -8.349  0.00  0.00    +0.000 NA
ATOM   1507  C4  C   B  62      19.185   5.194  -8.740  0.00  0.00    +0.000 A 
ATOM   1508  N4  C   B  62      18.224   5.152  -7.810  0.00  0.00    +0.000 N 
ATOM   1509  C5  C   B  62      18.888   4.887 -10.097  0.00  0.00    +0.000 A 
ATOM   1510  C6  C   B  62      19.890   4.945 -10.984  0.00  0.00    +0.000 A 
ATOM   1511  H   C   B  62      17.304   4.908  -8.063  0.00  0.00    +0.000 HD
ATOM   1512  H   C   B  62      18.437   5.365  -6.873  0.00  0.00    +0.000 HD
ENDBRANCH15021503
BRANCH15011513
ATOM   1513  O2' C   B  62      24.389   4.275 -11.985  0.00  0.00    +0.000 OA
ATOM   1514  H   C   B  62      24.464   4.847 -12.765  0.00  0.00    +0.000 HD
ENDBRANCH15011513
BRANCH15001515
ATOM   1515  O3' C   B  62      23.060   2.395 -13.570  0.00  0.00    +0.000 OA
BRANCH15151516
ATOM   1516  P   U   B  63      22.963   0.860 -13.089  0.00  0.00    +0.000 P 
ATOM   1517  OP1 U   B  63      23.224  -0.014 -14.262  0.00  0.00    +0.000 OA
BRANCH15161518
ATOM   1518  OP2 U   B  63      21.721   0.674 -12.296  0.00  0.00    +0.000 OA
ATOM   1519  H   U   B  63      20.951   0.740 -12.882  0.00  0.00    +0.000 HD
ENDBRANCH15161518
BRANCH15161520
ATOM   1520  O5' U   B  63      24.202   0.745 -12.099  0.00  0.00    +0.000 OA
BRANCH15201521
ATOM   1521  C5' U   B  63      25.526   1.025 -12.551  0.00  0.00    +0.000 C 
BRANCH15211522
ATOM   1522  C4' U   B  63      26.416   1.420 -11.398  0.00  0.00    +0.000 C 
ATOM   1523  O4' U   B  63      25.892   2.613 -10.758  0.00  0.00    +0.000 OA
ATOM   1524  C3' U   B  63      26.514   0.418 -10.262  0.00  0.00    +0.000 C 
ATOM   1525  C2' U   B  63      26.988   1.299  -9.107  0.00  0.00    +0.000 C 
ATOM   1526  C1' U   B  63      26.206   2.592  -9.377  0.00  0.00    +0.000 C 
BRANCH15261527
ATOM   1527  N1  U   B  63      24.948   2.675  -8.589  0.00  0.00    +0.000 N 
ATOM   1528  C2  U   B  63      24.964   3.455  -7.444  0.00  0.00    +0.000 A 
ATOM   1529  O2  U   B  63      25.955   4.069  -7.077  0.00  0.00    +0.000 OA
ATOM   1530  N3  U   B  63      23.780   3.498  -6.743  0.00  0.00    +0.000 N 
ATOM   1531  C4  U   B  63      22.607   2.851  -7.063  0.00  0.00    +0.000 A 
ATOM   1532  O4  U   B  63      21.626   2.987  -6.332  0.00  0.00    +0.000 OA
ATOM   1533  C5  U   B  63      22.671   2.063  -8.256  0.00  0.00    +0.000 A 
ATOM   1534  C6  U   B  63      23.809   2.001  -8.959  0.00  0.00    +0.000 A 
ATOM   1535  H   U   B  63      23.771   4.049  -5.927  0.00  0.00    +0.000 HD
ENDBRANCH15261527
BRANCH15251536
ATOM   1536  O2' U   B  63      28.378   1.573  -9.181  0.00  0.00    +0.000 OA
ATOM   1537  H   U   B  63      28.582   1.983 -10.036  0.00  0.00    +0.000 HD
ENDBRANCH15251536
BRANCH15241538
ATOM   1538  O3' U   B  63      27.404  -0.653 -10.559  0.00  0.00    +0.000 OA
BRANCH15381539
ATOM   1539  P   A   B  64      27.231  -2.066  -9.829  0.00  0.00    +0.000 P 
ATOM   1540  OP1 A   B  64      27.975  -3.079 -10.619  0.00  0.00    +0.000 OA
BRANCH15391541
ATOM   1541  OP2 A   B  64      25.795  -2.277  -9.524  0.00  0.00    +0.000 OA
ATOM   1542  H   A   B  64      25.305  -2.412 -10.350  0.00  0.00    +0.000 HD
ENDBRANCH15391541
BRANCH15391543
ATOM   1543  O5' A   B  64      28.002  -1.848  -8.449  0.00  0.00    +0.000 OA
BRANCH15431544
ATOM   1544  C5' A   B  64      29.402  -1.581  -8.438  0.00  0.00    +0.000 C 
BRANCH15441545
ATOM   1545  C4' A   B  64      29.835  -1.009  -7.107  0.00  0.00    +0.000 C 
ATOM   1546  O4' A   B  64      29.156   0.252  -6.864  0.00  0.00    +0.000 OA
ATOM   1547  C3' A   B  64      29.497  -1.838  -5.879  0.00  0.00    +0.000 C 
ATOM   1548  C2' A   B  64      29.565  -0.791  -4.771  0.00  0.00    +0.000 C 
ATOM   1549  C1' A   B  64      28.970   0.431  -5.475  0.00  0.00    +0.000 C 
BRANCH15491550
ATOM   1550  N9  A   B  64      27.531   0.592  -5.202  0.00  0.00    +0.000 N 
ATOM   1551  C8  A   B  64      26.473  -0.023  -5.823  0.00  0.00    +0.000 A 
ATOM   1552  N7  A   B  64      25.305   0.333  -5.343  0.00  0.00    +0.000 NA
ATOM   1553  C5  A   B  64      25.615   1.240  -4.339  0.00  0.00    +0.000 A 
ATOM   1554  C6  A   B  64      24.816   1.984  -3.448  0.00  0.00    +0.000 A 
ATOM   1555  N6  A   B  64      23.478   1.917  -3.426  0.00  0.00    +0.000 N 
ATOM   1556  N1  A   B  64      25.443   2.798  -2.571  0.00  0.00    +0.000 NA
ATOM   1557  C2  A   B  64      26.778   2.858  -2.593  0.00  0.00    +0.000 A 
ATOM   1558  N3  A   B  64      27.637   2.210  -3.382  0.00  0.00    +0.000 NA
ATOM   1559  C4  A   B  64      26.981   1.408  -4.241  0.00  0.00    +0.000 A 
ATOM   1560  H   A   B  64      23.004   1.329  -4.058  0.00  0.00    +0.000 HD
ATOM   1561  H   A   B  64      22.969   2.456  -2.778  0.00  0.00    +0.000 HD
ENDBRANCH15491550
BRANCH15481562
ATOM   1562  O2' A   B  64      30.899  -0.505  -4.382  0.00  0.00    +0.000 OA
ATOM   1563  H   A   B  64      31.407  -0.217  -5.157  0.00  0.00    +0.000 HD
ENDBRANCH15481562
BRANCH15471564
ATOM   1564  O3' A   B  64      30.406  -2.914  -5.687  0.00  0.00    +0.000 OA
BRANCH15641565
ATOM   1565  P   C   B  65      29.930  -4.234  -4.904  0.00  0.00    +0.000 P 
ATOM   1566  OP2 C   B  65      28.494  -4.484  -5.188  0.00  0.00    +0.000 OA
BRANCH15651567
ATOM   1567  OP1 C   B  65      30.931  -5.296  -5.182  0.00  0.00    +0.000 OA
ATOM   1568  H   C   B  65      30.866  -5.567  -6.111  0.00  0.00    +0.000 HD
ENDBRANCH15651567
BRANCH15651569
ATOM   1569  O5' C   B  65      30.062  -3.809  -3.367  0.00  0.00    +0.000 OA
BRANCH15691570
ATOM   1570  C5' C   B  65      31.320  -3.433  -2.816  0.00  0.00    +0.000 C 
BRANCH15701571
ATOM   1571  C4' C   B  65      31.145  -2.729  -1.490  0.00  0.00    +0.000 C 
ATOM   1572  O4' C   B  65      30.339  -1.531  -1.663  0.00  0.00    +0.000 OA
ATOM   1573  C3' C   B  65      30.412  -3.505  -0.413  0.00  0.00    +0.000 C 
ATOM   1574  C2' C   B  65      29.957  -2.383   0.520  0.00  0.00    +0.000 C 
ATOM   1575  C1' C   B  65      29.589  -1.287  -0.486  0.00  0.00    +0.000 C 
BRANCH15751576
ATOM   1576  N1  C   B  65      28.144  -1.280  -0.823  0.00  0.00    +0.000 N 
ATOM   1577  C2  C   B  65      27.272  -0.524  -0.025  0.00  0.00    +0.000 A 
ATOM   1578  O2  C   B  65      27.731   0.123   0.933  0.00  0.00    +0.000 OA
ATOM   1579  N3  C   B  65      25.947  -0.510  -0.320  0.00  0.00    +0.000 NA
ATOM   1580  C4  C   B  65      25.487  -1.212  -1.359  0.00  0.00    +0.000 A 
ATOM   1581  N4  C   B  65      24.176  -1.167  -1.607  0.00  0.00    +0.000 N 
ATOM   1582  C5  C   B  65      26.350  -1.989  -2.181  0.00  0.00    +0.000 A 
ATOM   1583  C6  C   B  65      27.656  -1.996  -1.883  0.00  0.00    +0.000 A 
ATOM   1584  H   C   B  65      23.801  -1.672  -2.364  0.00  0.00    +0.000 HD
ATOM   1585  H   C   B  65      23.585  -0.629  -1.032  0.00  0.00    +0.000 HD
ENDBRANCH15751576
BRANCH15741586
ATOM   1586  O2' C   B  65      31.001  -1.927   1.356  0.00  0.00    +0.000 OA
ATOM   1587  H   C   B  65      31.749  -1.638   0.811  0.00  0.00    +0.000 HD
ENDBRANCH15741586
BRANCH15731588
ATOM   1588  O3' C   B  65      31.248  -4.463   0.227  0.00  0.00    +0.000 OA
BRANCH15881589
ATOM   1589  P   A   B  66      30.617  -5.805   0.831  0.00  0.00    +0.000 P 
ATOM   1590  OP2 A   B  66      29.552  -6.286  -0.087  0.00  0.00    +0.000 OA
BRANCH15891591
ATOM   1591  OP1 A   B  66      31.741  -6.702   1.193  0.00  0.00    +0.000 OA
ATOM   1592  H   A   B  66      32.179  -7.014   0.386  0.00  0.00    +0.000 HD
ENDBRANCH15891591
BRANCH15891593
ATOM   1593  O5' A   B  66      29.917  -5.308   2.180  0.00  0.00    +0.000 OA
BRANCH15931594
ATOM   1594  C5' A   B  66      30.688  -4.744   3.237  0.00  0.00    +0.000 C 
BRANCH15941595
ATOM   1595  C4' A   B  66      29.800  -4.101   4.276  0.00  0.00    +0.000 C 
ATOM   1596  O4' A   B  66      29.036  -3.024   3.673  0.00  0.00    +0.000 OA
ATOM   1597  C3' A   B  66      28.739  -4.995   4.897  0.00  0.00    +0.000 C 
ATOM   1598  C2' A   B  66      27.739  -3.972   5.419  0.00  0.00    +0.000 C 
ATOM   1599  C1' A   B  66      27.768  -2.934   4.297  0.00  0.00    +0.000 C 
BRANCH15991600
ATOM   1600  N9  A   B  66      26.722  -3.174   3.290  0.00  0.00    +0.000 N 
ATOM   1601  C8  A   B  66      26.864  -3.728   2.041  0.00  0.00    +0.000 A 
ATOM   1602  N7  A   B  66      25.739  -3.813   1.372  0.00  0.00    +0.000 NA
ATOM   1603  C5  A   B  66      24.792  -3.280   2.238  0.00  0.00    +0.000 A 
ATOM   1604  C6  A   B  66      23.404  -3.083   2.122  0.00  0.00    +0.000 A 
ATOM   1605  N1  A   B  66      22.761  -2.525   3.172  0.00  0.00    +0.000 NA
ATOM   1606  C2  A   B  66      23.467  -2.189   4.259  0.00  0.00    +0.000 A 
ATOM   1607  N3  A   B  66      24.772  -2.323   4.484  0.00  0.00    +0.000 NA
ATOM   1608  C4  A   B  66      25.383  -2.882   3.420  0.00  0.00    +0.000 A 
BRANCH16041609
ATOM   1609  N6  A   B  66      22.698  -3.423   1.037  0.00  0.00    +0.000 N 
ATOM   1610  H   A   B  66      23.150  -3.830   0.263  0.00  0.00    +0.000 HD
ATOM   1611  H   A   B  66      21.726  -3.266   1.013  0.00  0.00    +0.000 HD
ENDBRANCH16041609
ENDBRANCH15991600
BRANCH15981612
ATOM   1612  O2' A   B  66      28.166  -3.373   6.627  0.00  0.00    +0.000 OA
ATOM   1613  H   A   B  66      29.038  -2.968   6.496  0.00  0.00    +0.000 HD
ENDBRANCH15981612
BRANCH15971614
ATOM   1614  O3' A   B  66      29.267  -5.837   5.915  0.00  0.00    +0.000 OA
BRANCH16141615
ATOM   1615  P   A   B  67      28.618  -7.278   6.188  0.00  0.00    +0.000 P 
ATOM   1616  OP2 A   B  67      28.205  -7.879   4.892  0.00  0.00    +0.000 OA
BRANCH16151617
ATOM   1617  OP1 A   B  67      29.536  -8.023   7.086  0.00  0.00    +0.000 OA
ATOM   1618  H   A   B  67      30.348  -8.246   6.605  0.00  0.00    +0.000 HD
ENDBRANCH16151617
BRANCH16151619
ATOM   1619  O5' A   B  67      27.292  -6.925   7.006  0.00  0.00    +0.000 OA
BRANCH16191620
ATOM   1620  C5' A   B  67      27.372  -6.298   8.282  0.00  0.00    +0.000 C 
BRANCH16201621
ATOM   1621  C4' A   B  67      26.035  -5.724   8.690  0.00  0.00    +0.000 C 
ATOM   1622  O4' A   B  67      25.569  -4.797   7.674  0.00  0.00    +0.000 OA
ATOM   1623  C3' A   B  67      24.893  -6.718   8.824  0.00  0.00    +0.000 C 
ATOM   1624  C2' A   B  67      23.678  -5.816   8.673  0.00  0.00    +0.000 C 
ATOM   1625  C1' A   B  67      24.159  -4.855   7.586  0.00  0.00    +0.000 C 
BRANCH16251626
ATOM   1626  N9  A   B  67      23.782  -5.311   6.238  0.00  0.00    +0.000 N 
ATOM   1627  C8  A   B  67      24.579  -5.910   5.294  0.00  0.00    +0.000 A 
ATOM   1628  N7  A   B  67      23.946  -6.205   4.184  0.00  0.00    +0.000 NA
ATOM   1629  C5  A   B  67      22.645  -5.773   4.411  0.00  0.00    +0.000 A 
ATOM   1630  C6  A   B  67      21.483  -5.798   3.619  0.00  0.00    +0.000 A 
ATOM   1631  N1  A   B  67      20.354  -5.284   4.151  0.00  0.00    +0.000 NA
ATOM   1632  C2  A   B  67      20.394  -4.781   5.390  0.00  0.00    +0.000 A 
ATOM   1633  N3  A   B  67      21.422  -4.701   6.228  0.00  0.00    +0.000 NA
ATOM   1634  C4  A   B  67      22.533  -5.221   5.669  0.00  0.00    +0.000 A 
BRANCH16301635
ATOM   1635  N6  A   B  67      21.445  -6.305   2.380  0.00  0.00    +0.000 N 
ATOM   1636  H   A   B  67      20.603  -6.296   1.870  0.00  0.00    +0.000 HD
ATOM   1637  H   A   B  67      22.259  -6.686   1.979  0.00  0.00    +0.000 HD
ENDBRANCH16301635
ENDBRANCH16251626
BRANCH16241638
ATOM   1638  O2' A   B  67      23.402  -5.089   9.853  0.00  0.00    +0.000 OA
ATOM   1639  H   A   B  67      24.185  -4.575  10.107  0.00  0.00    +0.000 HD
ENDBRANCH16241638
BRANCH16231640
ATOM   1640  O3' A   B  67      24.923  -7.417  10.058  0.00  0.00    +0.000 OA
BRANCH16401641
ATOM   1641  P   A   B  68      24.262  -8.874  10.182  0.00  0.00    +0.000 P 
ATOM   1642  OP2 A   B  68      24.510  -9.629   8.927  0.00  0.00    +0.000 OA
BRANCH16411643
ATOM   1643  OP1 A   B  68      24.686  -9.447  11.482  0.00  0.00    +0.000 OA
ATOM   1644  H   A   B  68      25.636  -9.642  11.455  0.00  0.00    +0.000 HD
ENDBRANCH16411643
BRANCH16411645
ATOM   1645  O5' A   B  68      22.695  -8.565  10.262  0.00  0.00    +0.000 OA
BRANCH16451646
ATOM   1646  C5' A   B  68      22.156  -7.814  11.345  0.00  0.00    +0.000 C 
BRANCH16461647
ATOM   1647  C4' A   B  68      20.755  -7.342  11.030  0.00  0.00    +0.000 C 
ATOM   1648  O4' A   B  68      20.749  -6.634   9.766  0.00  0.00    +0.000 OA
ATOM   1649  C3' A   B  68      19.716  -8.435  10.845  0.00  0.00    +0.000 C 
ATOM   1650  C2' A   B  68      18.660  -7.728  10.006  0.00  0.00    +0.000 C 
ATOM   1651  C1' A   B  68      19.528  -6.862   9.091  0.00  0.00    +0.000 C 
BRANCH16511652
ATOM   1652  N9  A   B  68      19.808  -7.508   7.799  0.00  0.00    +0.000 N 
ATOM   1653  C8  A   B  68      20.974  -8.106   7.386  0.00  0.00    +0.000 A 
ATOM   1654  N7  A   B  68      20.916  -8.593   6.169  0.00  0.00    +0.000 NA
ATOM   1655  C5  A   B  68      19.627  -8.294   5.750  0.00  0.00    +0.000 A 
ATOM   1656  C6  A   B  68      18.938  -8.541   4.548  0.00  0.00    +0.000 A 
ATOM   1657  N1  A   B  68      17.660  -8.112   4.460  0.00  0.00    +0.000 NA
ATOM   1658  C2  A   B  68      17.118  -7.479   5.508  0.00  0.00    +0.000 A 
ATOM   1659  N3  A   B  68      17.661  -7.187   6.685  0.00  0.00    +0.000 NA
ATOM   1660  C4  A   B  68      18.935  -7.627   6.741  0.00  0.00    +0.000 A 
BRANCH16561661
ATOM   1661  N6  A   B  68      19.483  -9.181   3.502  0.00  0.00    +0.000 N 
ATOM   1662  H   A   B  68      18.954  -9.327   2.684  0.00  0.00    +0.000 HD
ATOM   1663  H   A   B  68      20.411  -9.505   3.552  0.00  0.00    +0.000 HD
ENDBRANCH16561661
ENDBRANCH16511652
BRANCH16501664
ATOM   1664  O2' A   B  68      17.829  -6.891  10.789  0.00  0.00    +0.000 OA
ATOM   1665  H   A   B  68      18.376  -6.248  11.267  0.00  0.00    +0.000 HD
ENDBRANCH16501664
BRANCH16491666
ATOM   1666  O3' A   B  68      19.210  -8.909  12.085  0.00  0.00    +0.000 OA
BRANCH16661667
ATOM   1667  P   A   B  69      18.738 -10.436  12.252  0.00  0.00    +0.000 P 
ATOM   1668  OP2 A   B  69      19.740 -11.310  11.587  0.00  0.00    +0.000 OA
BRANCH16671669
ATOM   1669  OP1 A   B  69      18.406 -10.650  13.678  0.00  0.00    +0.000 OA
ATOM   1670  H   A   B  69      18.117 -11.567  13.809  0.00  0.00    +0.000 HD
ENDBRANCH16671669
BRANCH16671671
ATOM   1671  O5' A   B  69      17.387 -10.508  11.404  0.00  0.00    +0.000 OA
BRANCH16711672
ATOM   1672  C5' A   B  69      16.243  -9.760  11.791  0.00  0.00    +0.000 C 
BRANCH16721673
ATOM   1673  C4' A   B  69      15.208  -9.761  10.687  0.00  0.00    +0.000 C 
ATOM   1674  O4' A   B  69      15.796  -9.242   9.469  0.00  0.00    +0.000 OA
ATOM   1675  C3' A   B  69      14.676 -11.129  10.294  0.00  0.00    +0.000 C 
ATOM   1676  C2' A   B  69      14.218 -10.905   8.860  0.00  0.00    +0.000 C 
ATOM   1677  C1' A   B  69      15.272  -9.920   8.346  0.00  0.00    +0.000 C 
BRANCH16771678
ATOM   1678  N9  A   B  69      16.377 -10.580   7.635  0.00  0.00    +0.000 N 
ATOM   1679  C8  A   B  69      17.622 -10.896   8.121  0.00  0.00    +0.000 A 
ATOM   1680  N7  A   B  69      18.401 -11.476   7.238  0.00  0.00    +0.000 NA
ATOM   1681  C5  A   B  69      17.619 -11.545   6.092  0.00  0.00    +0.000 A 
ATOM   1682  C6  A   B  69      17.869 -12.051   4.801  0.00  0.00    +0.000 A 
ATOM   1683  N1  A   B  69      16.874 -11.964   3.893  0.00  0.00    +0.000 NA
ATOM   1684  C2  A   B  69      15.711 -11.406   4.256  0.00  0.00    +0.000 A 
ATOM   1685  N3  A   B  69      15.358 -10.896   5.433  0.00  0.00    +0.000 NA
ATOM   1686  C4  A   B  69      16.372 -10.997   6.319  0.00  0.00    +0.000 A 
BRANCH16821687
ATOM   1687  N6  A   B  69      19.033 -12.612   4.440  0.00  0.00    +0.000 N 
ATOM   1688  H   A   B  69      19.153 -12.949   3.523  0.00  0.00    +0.000 HD
ATOM   1689  H   A   B  69      19.767 -12.686   5.092  0.00  0.00    +0.000 HD
ENDBRANCH16821687
ENDBRANCH16771678
BRANCH16761690
ATOM   1690  O2' A   B  69      12.943 -10.298   8.797  0.00  0.00    +0.000 OA
ATOM   1691  H   A   B  69      12.959  -9.460   9.286  0.00  0.00    +0.000 HD
ENDBRANCH16761690
BRANCH16751692
ATOM   1692  O3' A   B  69      13.617 -11.546  11.145  0.00  0.00    +0.000 OA
BRANCH16921693
ATOM   1693  P   A   B  70      13.535 -13.036  11.740  0.00  0.00    +0.000 P 
ATOM   1694  OP2 A   B  70      14.894 -13.424  12.190  0.00  0.00    +0.000 OA
BRANCH16931695
ATOM   1695  OP1 A   B  70      12.408 -13.072  12.703  0.00  0.00    +0.000 OA
ATOM   1696  H   A   B  70      11.593 -12.792  12.258  0.00  0.00    +0.000 HD
ENDBRANCH16931695
BRANCH16931697
ATOM   1697  O5' A   B  70      13.154 -13.942  10.489  0.00  0.00    +0.000 OA
BRANCH16971698
ATOM   1698  C5' A   B  70      11.902 -13.800   9.816  0.00  0.00    +0.000 C 
BRANCH16981699
ATOM   1699  C4' A   B  70      11.572 -15.039   9.013  0.00  0.00    +0.000 C 
ATOM   1700  O4' A   B  70      12.767 -15.480   8.305  0.00  0.00    +0.000 OA
ATOM   1701  C3' A   B  70      11.122 -16.243   9.839  0.00  0.00    +0.000 C 
ATOM   1702  C2' A   B  70      12.434 -16.975  10.087  0.00  0.00    +0.000 C 
ATOM   1703  C1' A   B  70      13.117 -16.782   8.732  0.00  0.00    +0.000 C 
BRANCH17031704
ATOM   1704  N9  A   B  70      14.579 -16.874   8.778  0.00  0.00    +0.000 N 
ATOM   1705  C8  A   B  70      15.463 -16.032   9.401  0.00  0.00    +0.000 A 
ATOM   1706  N7  A   B  70      16.719 -16.385   9.248  0.00  0.00    +0.000 NA
ATOM   1707  C5  A   B  70      16.655 -17.531   8.470  0.00  0.00    +0.000 A 
ATOM   1708  C6  A   B  70      17.644 -18.387   7.956  0.00  0.00    +0.000 A 
ATOM   1709  N1  A   B  70      17.241 -19.440   7.215  0.00  0.00    +0.000 NA
ATOM   1710  C2  A   B  70      15.930 -19.617   7.007  0.00  0.00    +0.000 A 
ATOM   1711  N3  A   B  70      14.904 -18.886   7.435  0.00  0.00    +0.000 NA
ATOM   1712  C4  A   B  70      15.342 -17.845   8.167  0.00  0.00    +0.000 A 
BRANCH17081713
ATOM   1713  N6  A   B  70      18.957 -18.203   8.163  0.00  0.00    +0.000 N 
ATOM   1714  H   A   B  70      19.609 -18.833   7.780  0.00  0.00    +0.000 HD
ATOM   1715  H   A   B  70      19.268 -17.438   8.698  0.00  0.00    +0.000 HD
ENDBRANCH17081713
ENDBRANCH17031704
BRANCH17021716
ATOM   1716  O2' A   B  70      12.298 -18.353  10.391  0.00  0.00    +0.000 OA
ATOM   1717  H   A   B  70      11.828 -18.799   9.669  0.00  0.00    +0.000 HD
ENDBRANCH17021716
BRANCH17011718
ATOM   1718  O3' A   B  70      10.271 -17.056   9.024  0.00  0.00    +0.000 OA
BRANCH17181719
ATOM   1719  P   U   B  71       8.816 -17.443   9.366  0.00  0.00    +0.000 P 
ATOM   1720  OP2 U   B  71       8.038 -17.248   8.123  0.00  0.00    +0.000 OA
BRANCH17191721
ATOM   1721  OP1 U   B  71       8.850 -18.767  10.017  0.00  0.00    +0.000 OA
ATOM   1722  H   U   B  71       9.168 -19.430   9.385  0.00  0.00    +0.000 HD
ENDBRANCH17191721
BRANCH17191723
ATOM   1723  O5' U   B  71       8.288 -16.378  10.434  0.00  0.00    +0.000 OA
BRANCH17231724
ATOM   1724  C5' U   B  71       8.146 -16.716  11.813  0.00  0.00    +0.000 C 
BRANCH17241725
ATOM   1725  C4' U   B  71       6.979 -15.993  12.442  0.00  0.00    +0.000 C 
ATOM   1726  O4' U   B  71       7.103 -14.566  12.220  0.00  0.00    +0.000 OA
ATOM   1727  C3' U   B  71       5.613 -16.333  11.874  0.00  0.00    +0.000 C 
ATOM   1728  C2' U   B  71       4.792 -15.109  12.264  0.00  0.00    +0.000 C 
ATOM   1729  C1' U   B  71       5.815 -13.989  12.052  0.00  0.00    +0.000 C 
BRANCH17291730
ATOM   1730  N1  U   B  71       5.725 -13.392  10.705  0.00  0.00    +0.000 N 
ATOM   1731  C2  U   B  71       4.670 -12.530  10.445  0.00  0.00    +0.000 A 
ATOM   1732  O2  U   B  71       3.817 -12.252  11.277  0.00  0.00    +0.000 OA
ATOM   1733  N3  U   B  71       4.643 -12.004   9.175  0.00  0.00    +0.000 N 
ATOM   1734  C4  U   B  71       5.545 -12.245   8.159  0.00  0.00    +0.000 A 
ATOM   1735  O4  U   B  71       5.386 -11.692   7.069  0.00  0.00    +0.000 OA
ATOM   1736  C5  U   B  71       6.610 -13.141   8.502  0.00  0.00    +0.000 A 
ATOM   1737  C6  U   B  71       6.666 -13.666   9.733  0.00  0.00    +0.000 A 
ATOM   1738  H   U   B  71       3.901 -11.390   8.969  0.00  0.00    +0.000 HD
ENDBRANCH17291730
BRANCH17281739
ATOM   1739  O2' U   B  71       4.400 -15.144  13.615  0.00  0.00    +0.000 OA
ATOM   1740  H   U   B  71       5.186 -15.230  14.177  0.00  0.00    +0.000 HD
ENDBRANCH17281739
BRANCH17271741
ATOM   1741  O3' U   B  71       5.087 -17.548  12.393  0.00  0.00    +0.000 OA
BRANCH17411742
ATOM   1742  P   C   B  72       4.159 -18.493  11.485  0.00  0.00    +0.000 P 
ATOM   1743  OP2 C   B  72       4.832 -18.698  10.180  0.00  0.00    +0.000 OA
BRANCH17421744
ATOM   1744  OP1 C   B  72       3.775 -19.666  12.310  0.00  0.00    +0.000 OA
ATOM   1745  H   C   B  72       3.212 -20.258  11.788  0.00  0.00    +0.000 HD
ENDBRANCH17421744
BRANCH17421746
ATOM   1746  O5' C   B  72       2.850 -17.618  11.231  0.00  0.00    +0.000 OA
BRANCH17461747
ATOM   1747  C5' C   B  72       1.944 -17.323  12.294  0.00  0.00    +0.000 C 
BRANCH17471748
ATOM   1748  C4' C   B  72       0.831 -16.417  11.825  0.00  0.00    +0.000 C 
ATOM   1749  O4' C   B  72       1.377 -15.168  11.329  0.00  0.00    +0.000 OA
ATOM   1750  C3' C   B  72       0.006 -16.941  10.670  0.00  0.00    +0.000 C 
ATOM   1751  C2' C   B  72      -0.595 -15.655  10.104  0.00  0.00    +0.000 C 
ATOM   1752  C1' C   B  72       0.561 -14.669  10.285  0.00  0.00    +0.000 C 
BRANCH17521753
ATOM   1753  N1  C   B  72       1.382 -14.513   9.065  0.00  0.00    +0.000 N 
ATOM   1754  C2  C   B  72       0.908 -13.682   8.038  0.00  0.00    +0.000 A 
ATOM   1755  O2  C   B  72      -0.181 -13.107   8.181  0.00  0.00    +0.000 OA
ATOM   1756  N3  C   B  72       1.654 -13.527   6.914  0.00  0.00    +0.000 NA
ATOM   1757  C4  C   B  72       2.824 -14.162   6.790  0.00  0.00    +0.000 A 
ATOM   1758  N4  C   B  72       3.517 -13.974   5.661  0.00  0.00    +0.000 N 
ATOM   1759  C5  C   B  72       3.328 -15.007   7.817  0.00  0.00    +0.000 A 
ATOM   1760  C6  C   B  72       2.588 -15.152   8.926  0.00  0.00    +0.000 A 
ATOM   1761  H   C   B  72       3.160 -13.387   4.956  0.00  0.00    +0.000 HD
ATOM   1762  H   C   B  72       4.384 -14.423   5.535  0.00  0.00    +0.000 HD
ENDBRANCH17521753
BRANCH17511763
ATOM   1763  O2' C   B  72      -1.708 -15.216  10.847  0.00  0.00    +0.000 OA
ATOM   1764  H   C   B  72      -1.450 -15.094  11.774  0.00  0.00    +0.000 HD
ENDBRANCH17511763
BRANCH17501765
ATOM   1765  O3' C   B  72      -0.979 -17.879  11.087  0.00  0.00    +0.000 OA
BRANCH17651766
ATOM   1766  P   U   B  73      -1.286 -19.191  10.197  0.00  0.00    +0.000 P 
ATOM   1767  OP2 U   B  73       0.011 -19.785   9.782  0.00  0.00    +0.000 OA
BRANCH17661768
ATOM   1768  OP1 U   B  73      -2.272 -20.017  10.938  0.00  0.00    +0.000 OA
ATOM   1769  H   U   B  73      -2.476 -20.815  10.425  0.00  0.00    +0.000 HD
ENDBRANCH17661768
BRANCH17661770
ATOM   1770  O5' U   B  73      -2.005 -18.610   8.893  0.00  0.00    +0.000 OA
BRANCH17701771
ATOM   1771  C5' U   B  73      -3.286 -17.996   8.979  0.00  0.00    +0.000 C 
BRANCH17711772
ATOM   1772  C4' U   B  73      -3.692 -17.401   7.650  0.00  0.00    +0.000 C 
ATOM   1773  O4' U   B  73      -2.802 -16.305   7.306  0.00  0.00    +0.000 OA
ATOM   1774  C3' U   B  73      -3.606 -18.339   6.463  0.00  0.00    +0.000 C 
ATOM   1775  C2' U   B  73      -3.497 -17.361   5.295  0.00  0.00    +0.000 C 
ATOM   1776  C1' U   B  73      -2.628 -16.254   5.903  0.00  0.00    +0.000 C 
BRANCH17761777
ATOM   1777  N1  U   B  73      -1.191 -16.420   5.595  0.00  0.00    +0.000 N 
ATOM   1778  C2  U   B  73      -0.732 -15.930   4.381  0.00  0.00    +0.000 A 
ATOM   1779  O2  U   B  73      -1.457 -15.381   3.570  0.00  0.00    +0.000 OA
ATOM   1780  N3  U   B  73       0.615 -16.108   4.148  0.00  0.00    +0.000 N 
ATOM   1781  C4  U   B  73       1.527 -16.711   4.989  0.00  0.00    +0.000 A 
ATOM   1782  O4  U   B  73       2.709 -16.795   4.639  0.00  0.00    +0.000 OA
ATOM   1783  C5  U   B  73       0.979 -17.189   6.223  0.00  0.00    +0.000 A 
ATOM   1784  C6  U   B  73      -0.328 -17.030   6.478  0.00  0.00    +0.000 A 
ATOM   1785  H   U   B  73       0.963 -15.769   3.291  0.00  0.00    +0.000 HD
ENDBRANCH17761777
BRANCH17751786
ATOM   1786  O2' U   B  73      -4.751 -16.825   4.929  0.00  0.00    +0.000 OA
ATOM   1787  H   U   B  73      -5.156 -16.396   5.699  0.00  0.00    +0.000 HD
ENDBRANCH17751786
BRANCH17741788
ATOM   1788  O3' U   B  73      -4.737 -19.200   6.372  0.00  0.00    +0.000 OA
BRANCH17881789
ATOM   1789  P   C   B  74      -4.558 -20.757   5.968  0.00  0.00    +0.000 P 
ATOM   1790  OP1 C   B  74      -5.845 -21.447   6.237  0.00  0.00    +0.000 OA
BRANCH17891791
ATOM   1791  OP2 C   B  74      -3.308 -21.261   6.590  0.00  0.00    +0.000 OA
ATOM   1792  H   C   B  74      -3.185 -22.195   6.358  0.00  0.00    +0.000 HD
ENDBRANCH17891791
BRANCH17891793
ATOM   1793  O5' C   B  74      -4.341 -20.714   4.385  0.00  0.00    +0.000 OA
BRANCH17931794
ATOM   1794  C5' C   B  74      -5.391 -20.313   3.514  0.00  0.00    +0.000 C 
BRANCH17941795
ATOM   1795  C4' C   B  74      -4.868 -20.057   2.119  0.00  0.00    +0.000 C 
ATOM   1796  O4' C   B  74      -3.857 -19.013   2.157  0.00  0.00    +0.000 OA
ATOM   1797  C3' C   B  74      -4.173 -21.223   1.449  0.00  0.00    +0.000 C 
ATOM   1798  C2' C   B  74      -3.314 -20.519   0.400  0.00  0.00    +0.000 C 
ATOM   1799  C1' C   B  74      -2.902 -19.239   1.136  0.00  0.00    +0.000 C 
BRANCH17991800
ATOM   1800  N1  C   B  74      -1.558 -19.331   1.745  0.00  0.00    +0.000 N 
ATOM   1801  C2  C   B  74      -0.446 -19.019   0.950  0.00  0.00    +0.000 A 
ATOM   1802  O2  C   B  74      -0.621 -18.680  -0.228  0.00  0.00    +0.000 OA
ATOM   1803  N3  C   B  74       0.800 -19.098   1.492  0.00  0.00    +0.000 NA
ATOM   1804  C4  C   B  74       0.953 -19.466   2.768  0.00  0.00    +0.000 A 
ATOM   1805  N4  C   B  74       2.197 -19.526   3.253  0.00  0.00    +0.000 N 
ATOM   1806  C5  C   B  74      -0.163 -19.786   3.595  0.00  0.00    +0.000 A 
ATOM   1807  C6  C   B  74      -1.385 -19.707   3.051  0.00  0.00    +0.000 A 
ATOM   1808  H   C   B  74       2.962 -19.303   2.675  0.00  0.00    +0.000 HD
ATOM   1809  H   C   B  74       2.348 -19.793   4.188  0.00  0.00    +0.000 HD
ENDBRANCH17991800
BRANCH17981810
ATOM   1810  O2' C   B  74      -4.056 -20.176  -0.751  0.00  0.00    +0.000 OA
ATOM   1811  H   C   B  74      -4.808 -19.619  -0.497  0.00  0.00    +0.000 HD
ENDBRANCH17981810
BRANCH17971812
ATOM   1812  O3' C   B  74      -5.099 -22.145   0.875  0.00  0.00    +0.000 OA
BRANCH18121813
ATOM   1813  P   C   B  75      -5.015 -23.743   1.194  0.00  0.00    +0.000 P 
ATOM   1814  OP1 C   B  75      -6.095 -24.410   0.433  0.00  0.00    +0.000 OA
BRANCH18131815
ATOM   1815  OP2 C   B  75      -4.934 -23.921   2.664  0.00  0.00    +0.000 OA
ATOM   1816  H   C   B  75      -4.883 -24.867   2.873  0.00  0.00    +0.000 HD
ENDBRANCH18131815
BRANCH18131817
ATOM   1817  O5' C   B  75      -3.608 -24.181   0.565  0.00  0.00    +0.000 OA
BRANCH18171818
ATOM   1818  C5' C   B  75      -3.383 -24.142  -0.839  0.00  0.00    +0.000 C 
BRANCH18181819
ATOM   1819  C4' C   B  75      -1.911 -24.346  -1.137  0.00  0.00    +0.000 C 
ATOM   1820  O4' C   B  75      -1.140 -23.330  -0.446  0.00  0.00    +0.000 OA
ATOM   1821  C3' C   B  75      -1.324 -25.666  -0.658  0.00  0.00    +0.000 C 
ATOM   1822  C2' C   B  75       0.152 -25.327  -0.468  0.00  0.00    +0.000 C 
ATOM   1823  C1' C   B  75       0.091 -23.865  -0.011  0.00  0.00    +0.000 C 
BRANCH18231824
ATOM   1824  N1  C   B  75       0.191 -23.695   1.460  0.00  0.00    +0.000 N 
ATOM   1825  C2  C   B  75       1.456 -23.702   2.056  0.00  0.00    +0.000 A 
ATOM   1826  O2  C   B  75       2.459 -23.863   1.347  0.00  0.00    +0.000 OA
ATOM   1827  N3  C   B  75       1.559 -23.532   3.401  0.00  0.00    +0.000 NA
ATOM   1828  C4  C   B  75       0.458 -23.360   4.140  0.00  0.00    +0.000 A 
ATOM   1829  N4  C   B  75       0.610 -23.194   5.458  0.00  0.00    +0.000 N 
ATOM   1830  C5  C   B  75      -0.842 -23.349   3.556  0.00  0.00    +0.000 A 
ATOM   1831  C6  C   B  75      -0.931 -23.516   2.229  0.00  0.00    +0.000 A 
ATOM   1832  H   C   B  75       1.511 -23.203   5.855  0.00  0.00    +0.000 HD
ATOM   1833  H   C   B  75      -0.179 -23.063   6.032  0.00  0.00    +0.000 HD
ENDBRANCH18231824
BRANCH18221834
ATOM   1834  O2' C   B  75       0.878 -25.396  -1.684  0.00  0.00    +0.000 OA
ATOM   1835  H   C   B  75       0.475 -24.800  -2.335  0.00  0.00    +0.000 HD
ENDBRANCH18221834
BRANCH18211836
ATOM   1836  O3' C   B  75      -1.521 -26.690  -1.620  0.00  0.00    +0.000 OA
BRANCH18361837
ATOM   1837  P   A   B  76      -2.146 -28.192  -1.358  0.00  0.00    +0.000 P 
ATOM   1838  OP1 A   B  76      -1.350 -29.133  -2.193  0.00  0.00    +0.000 OA
BRANCH18371839
ATOM   1839  OP2 A   B  76      -3.601 -28.145  -1.509  0.00  0.00    +0.000 OA
ATOM   1840  H   A   B  76      -3.824 -27.957  -2.434  0.00  0.00    +0.000 HD
ENDBRANCH18371839
BRANCH18371841
ATOM   1841  O5' A   B  76      -1.773 -28.500   0.159  0.00  0.00    +0.000 OA
BRANCH18411842
ATOM   1842  C5' A   B  76      -2.544 -28.031   1.230  0.00  0.00    +0.000 C 
BRANCH18421843
ATOM   1843  C4' A   B  76      -2.897 -29.124   2.218  0.00  0.00    +0.000 C 
ATOM   1844  O4' A   B  76      -4.072 -29.830   1.746  0.00  0.00    +0.000 OA
ATOM   1845  C3' A   B  76      -1.872 -30.233   2.411  0.00  0.00    +0.000 C 
ATOM   1846  C2' A   B  76      -2.721 -31.348   3.003  0.00  0.00    +0.000 C 
ATOM   1847  C1' A   B  76      -4.054 -31.154   2.259  0.00  0.00    +0.000 C 
BRANCH18471848
ATOM   1848  N9  A   B  76      -4.257 -32.112   1.167  0.00  0.00    +0.000 N 
ATOM   1849  C8  A   B  76      -4.025 -31.940  -0.166  0.00  0.00    +0.000 A 
ATOM   1850  N7  A   B  76      -4.309 -33.003  -0.885  0.00  0.00    +0.000 NA
ATOM   1851  C5  A   B  76      -4.759 -33.930   0.040  0.00  0.00    +0.000 A 
ATOM   1852  C6  A   B  76      -5.216 -35.255  -0.087  0.00  0.00    +0.000 A 
ATOM   1853  N1  A   B  76      -5.587 -35.902   1.042  0.00  0.00    +0.000 NA
ATOM   1854  C2  A   B  76      -5.504 -35.258   2.216  0.00  0.00    +0.000 A 
ATOM   1855  N3  A   B  76      -5.097 -34.012   2.452  0.00  0.00    +0.000 NA
ATOM   1856  C4  A   B  76      -4.734 -33.399   1.308  0.00  0.00    +0.000 A 
BRANCH18521857
ATOM   1857  N6  A   B  76      -5.300 -35.902  -1.253  0.00  0.00    +0.000 N 
ATOM   1858  H   A   B  76      -5.035 -35.450  -2.087  0.00  0.00    +0.000 HD
ATOM   1859  H   A   B  76      -5.627 -36.830  -1.278  0.00  0.00    +0.000 HD
ENDBRANCH18521857
ENDBRANCH18471848
BRANCH18461860
ATOM   1860  O2' A   B  76      -2.922 -31.178   4.385  0.00  0.00    +0.000 OA
ATOM   1861  H   A   B  76      -3.327 -30.312   4.549  0.00  0.00    +0.000 HD
ENDBRANCH18461860
BRANCH18451862
ATOM   1862  O3' A   B  76      -0.799 -29.841   3.262  0.00  0.00    +0.000 OA
ATOM   1863  H   A   B  76      -1.153 -29.561   4.121  0.00  0.00    +0.000 HD
ENDBRANCH18451862
ENDBRANCH18421843
ENDBRANCH18411842
ENDBRANCH18371841
ENDBRANCH18361837
ENDBRANCH18211836
ENDBRANCH18181819
ENDBRANCH18171818
ENDBRANCH18131817
ENDBRANCH18121813
ENDBRANCH17971812
ENDBRANCH17941795
ENDBRANCH17931794
ENDBRANCH17891793
ENDBRANCH17881789
ENDBRANCH17741788
ENDBRANCH17711772
ENDBRANCH17701771
ENDBRANCH17661770
ENDBRANCH17651766
ENDBRANCH17501765
ENDBRANCH17471748
ENDBRANCH17461747
ENDBRANCH17421746
ENDBRANCH17411742
ENDBRANCH17271741
ENDBRANCH17241725
ENDBRANCH17231724
ENDBRANCH17191723
ENDBRANCH17181719
ENDBRANCH17011718
ENDBRANCH16981699
ENDBRANCH16971698
ENDBRANCH16931697
ENDBRANCH16921693
ENDBRANCH16751692
ENDBRANCH16721673
ENDBRANCH16711672
ENDBRANCH16671671
ENDBRANCH16661667
ENDBRANCH16491666
ENDBRANCH16461647
ENDBRANCH16451646
ENDBRANCH16411645
ENDBRANCH16401641
ENDBRANCH16231640
ENDBRANCH16201621
ENDBRANCH16191620
ENDBRANCH16151619
ENDBRANCH16141615
ENDBRANCH15971614
ENDBRANCH15941595
ENDBRANCH15931594
ENDBRANCH15891593
ENDBRANCH15881589
ENDBRANCH15731588
ENDBRANCH15701571
ENDBRANCH15691570
ENDBRANCH15651569
ENDBRANCH15641565
ENDBRANCH15471564
ENDBRANCH15441545
ENDBRANCH15431544
ENDBRANCH15391543
ENDBRANCH15381539
ENDBRANCH15241538
ENDBRANCH15211522
ENDBRANCH15201521
ENDBRANCH15161520
ENDBRANCH15151516
ENDBRANCH15001515
ENDBRANCH14971498
ENDBRANCH14961497
ENDBRANCH14921496
ENDBRANCH14911492
ENDBRANCH14741491
ENDBRANCH14711472
ENDBRANCH14701471
ENDBRANCH14661470
ENDBRANCH14651466
ENDBRANCH14461465
ENDBRANCH14431444
ENDBRANCH14421443
ENDBRANCH14381442
ENDBRANCH14371438
ENDBRANCH14201437
ENDBRANCH14171418
ENDBRANCH14161417
ENDBRANCH14121416
ENDBRANCH14111412
ENDBRANCH13961411
ENDBRANCH13931394
ENDBRANCH13921393
ENDBRANCH13881392
ENDBRANCH13871388
ENDBRANCH13701387
ENDBRANCH13671368
ENDBRANCH13661367
ENDBRANCH13621366
ENDBRANCH13611362
ENDBRANCH13441361
ENDBRANCH13411342
ENDBRANCH13401341
ENDBRANCH13361340
ENDBRANCH13351336
ENDBRANCH13181335
ENDBRANCH13151316
ENDBRANCH13141315
ENDBRANCH13101314
ENDBRANCH13091310
ENDBRANCH12921309
ENDBRANCH12891290
ENDBRANCH12881289
ENDBRANCH12841288
ENDBRANCH12831284
ENDBRANCH12661283
ENDBRANCH12631264
ENDBRANCH12621263
ENDBRANCH12581262
ENDBRANCH12571258
ENDBRANCH12431257
ENDBRANCH12401241
ENDBRANCH12391240
ENDBRANCH12351239
ENDBRANCH12341235
ENDBRANCH12201234
ENDBRANCH12171218
ENDBRANCH12161217
ENDBRANCH12121216
ENDBRANCH12111212
ENDBRANCH11971211
ENDBRANCH11941195
ENDBRANCH11931194
ENDBRANCH11891193
ENDBRANCH11881189
ENDBRANCH11741188
ENDBRANCH11711172
ENDBRANCH11701171
ENDBRANCH11661170
ENDBRANCH11651166
ENDBRANCH11481165
ENDBRANCH11451146
ENDBRANCH11441145
ENDBRANCH11401144
ENDBRANCH11391140
ENDBRANCH11251139
ENDBRANCH11221123
ENDBRANCH11211122
ENDBRANCH11171121
ENDBRANCH11161117
ENDBRANCH11021116
ENDBRANCH10991100
ENDBRANCH10981099
ENDBRANCH10941098
ENDBRANCH10931094
ENDBRANCH10791093
ENDBRANCH10761077
ENDBRANCH10751076
ENDBRANCH10711075
ENDBRANCH10701071
ENDBRANCH10551070
ENDBRANCH10521053
ENDBRANCH10511052
ENDBRANCH10471051
ENDBRANCH10461047
ENDBRANCH 9871046
ENDBRANCH 936 937
ENDBRANCH 935 936
ENDBRANCH   1 935
TORSDOF 594
