REMARK  Name = /storage/kiran-stuff/aaRS/phase2/energy_scoring/vina_182jobs/modern_thrrs_PRO_PRO/ligand.h.pdb
REMARK  2 active torsions:
REMARK  status: ('A' for Active; 'I' for Inactive)
REMARK    1  A    between atoms: CA_2  and  C_3
REMARK    2  A    between atoms: C_3  and  O_4
REMARK                            x       y       z     vdW  Elec       q    Type
REMARK                         _______ _______ _______ _____ _____    ______ ____
ROOT
ATOM      1  N   PRO B   1       0.797  17.592  -5.188  0.00  0.00    +0.000 NA
ATOM      2  CA  PRO B   1      -0.419  18.413  -5.241  0.00  0.00    +0.000 C 
ATOM      3  CB  PRO B   1      -0.248  19.365  -4.091  0.00  0.00    +0.000 C 
ATOM      4  CG  PRO B   1       1.181  19.403  -3.795  0.00  0.00    +0.000 C 
ATOM      5  CD  PRO B   1       1.755  18.153  -4.266  0.00  0.00    +0.000 C 
ATOM      6  H   PRO B   1       1.213  17.550  -6.118  0.00  0.00    +0.000 HD
ENDROOT
BRANCH   2   7
ATOM      7  C   PRO B   1      -0.520  19.179  -6.568  0.00  0.00    +0.000 C 
ATOM      8  OXT PRO B   1       0.190  18.836  -7.508  0.00  0.00    +0.000 OA
BRANCH   7   9
ATOM      9  O   PRO B   1      -1.288  20.133  -6.670  0.00  0.00    +0.000 OA
ATOM     10  H   PRO B   1      -1.824  20.383  -5.943  0.00  0.00    +0.000 HD
ENDBRANCH   7   9
ENDBRANCH   2   7
TORSDOF 2
