REMARK  Name = /storage/kiran-stuff/aaRS/phase2/energy_scoring/vina_182jobs/modern_thrrs_pro_PRO/ligand.h.pdb
REMARK  2 active torsions:
REMARK  status: ('A' for Active; 'I' for Inactive)
REMARK    1  A    between atoms: CA_2  and  C_3
REMARK    2  A    between atoms: C_3  and  O_4
REMARK                            x       y       z     vdW  Elec       q    Type
REMARK                         _______ _______ _______ _____ _____    ______ ____
ROOT
ATOM      1  N   PRO C   1      -7.658   0.065  24.901  0.00  0.00    +0.000 NA
ATOM      2  CA  PRO C   1      -7.810  -1.095  24.032  0.00  0.00    +0.000 C 
ATOM      3  CB  PRO C   1      -8.498  -0.539  22.813  0.00  0.00    +0.000 C 
ATOM      4  CG  PRO C   1      -9.250   0.612  23.303  0.00  0.00    +0.000 C 
ATOM      5  CD  PRO C   1      -8.639   1.032  24.568  0.00  0.00    +0.000 C 
ATOM      6  H   PRO C   1      -6.728   0.465  24.775  0.00  0.00    +0.000 HD
ENDROOT
BRANCH   2   7
ATOM      7  C   PRO C   1      -6.496  -1.762  23.677  0.00  0.00    +0.000 C 
ATOM      8  OXT PRO C   1      -6.495  -2.671  22.829  0.00  0.00    +0.000 OA
BRANCH   7   9
ATOM      9  O   PRO C   1      -5.453  -1.394  24.202  0.00  0.00    +0.000 OA
ATOM     10  H   PRO C   1      -5.466  -0.708  24.840  0.00  0.00    +0.000 HD
ENDBRANCH   7   9
ENDBRANCH   2   7
TORSDOF 2
