REMARK  Name = /storage/kiran-stuff/aaRS/phase2/energy_scoring/vina_182jobs/modern_thrrs_PRO_PRO/ligand.h.pdb
REMARK  2 active torsions:
REMARK  status: ('A' for Active; 'I' for Inactive)
REMARK    1  A    between atoms: CA_2  and  C_3
REMARK    2  A    between atoms: C_3  and  O_4
REMARK                            x       y       z     vdW  Elec       q    Type
REMARK                         _______ _______ _______ _____ _____    ______ ____
ROOT
ATOM      1  N   PRO B   1       0.615  17.955  -4.869  0.00  0.00    +0.000 NA
ATOM      2  CA  PRO B   1      -0.716  18.481  -5.196  0.00  0.00    +0.000 C 
ATOM      3  CB  PRO B   1      -0.816  19.723  -4.356  0.00  0.00    +0.000 C 
ATOM      4  CG  PRO B   1       0.552  20.114  -4.031  0.00  0.00    +0.000 C 
ATOM      5  CD  PRO B   1       1.375  18.918  -4.109  0.00  0.00    +0.000 C 
ATOM      6  H   PRO B   1       1.113  17.744  -5.734  0.00  0.00    +0.000 HD
ENDROOT
BRANCH   2   7
ATOM      7  C   PRO B   1      -0.832  18.825  -6.688  0.00  0.00    +0.000 C 
ATOM      8  OXT PRO B   1      -0.021  18.345  -7.473  0.00  0.00    +0.000 OA
BRANCH   7   9
ATOM      9  O   PRO B   1      -1.714  19.588  -7.076  0.00  0.00    +0.000 OA
ATOM     10  H   PRO B   1      -2.326  19.947  -6.463  0.00  0.00    +0.000 HD
ENDBRANCH   7   9
ENDBRANCH   2   7
TORSDOF 2
