REMARK  Name = /storage/kiran-stuff/aaRS/phase2/energy_scoring/vina_182jobs/anc_prors_edit_PHE_PHE/ligand.h.pdb
REMARK  5 active torsions:
REMARK  status: ('A' for Active; 'I' for Inactive)
REMARK    1  A    between atoms: N_1  and  CA_2
REMARK    2  A    between atoms: CA_2  and  C_3
REMARK    3  A    between atoms: CA_2  and  CB_5
REMARK    4  A    between atoms: C_3  and  O_4
REMARK    5  A    between atoms: CB_5  and  CG_6
REMARK                            x       y       z     vdW  Elec       q    Type
REMARK                         _______ _______ _______ _____ _____    ______ ____
ROOT
ATOM      1  CA  PHE B   1       6.070  22.544  -5.919  0.00  0.00    +0.000 C 
ENDROOT
BRANCH   1   2
ATOM      2  N   PHE B   1       6.959  21.459  -5.511  0.00  0.00    +0.000 NA
ATOM      3  H   PHE B   1       6.732  20.616  -6.039  0.00  0.00    +0.000 HD
ATOM      4  H   PHE B   1       6.840  21.278  -4.514  0.00  0.00    +0.000 HD
ENDBRANCH   1   2
BRANCH   1   5
ATOM      5  C   PHE B   1       6.211  22.829  -7.413  0.00  0.00    +0.000 C 
ATOM      6  OXT PHE B   1       5.371  23.557  -7.974  0.00  0.00    +0.000 OA
BRANCH   5   7
ATOM      7  O   PHE B   1       7.139  22.349  -8.076  0.00  0.00    +0.000 OA
ATOM      8  H   PHE B   1       7.776  21.799  -7.662  0.00  0.00    +0.000 HD
ENDBRANCH   5   7
ENDBRANCH   1   5
BRANCH   1   9
ATOM      9  CB  PHE B   1       6.377  23.833  -5.150  0.00  0.00    +0.000 C 
BRANCH   9  10
ATOM     10  CG  PHE B   1       6.072  23.747  -3.688  0.00  0.00    +0.000 A 
ATOM     11  CD1 PHE B   1       7.009  24.187  -2.756  0.00  0.00    +0.000 A 
ATOM     12  CD2 PHE B   1       4.865  23.237  -3.258  0.00  0.00    +0.000 A 
ATOM     13  CE1 PHE B   1       6.729  24.091  -1.411  0.00  0.00    +0.000 A 
ATOM     14  CE2 PHE B   1       4.588  23.146  -1.912  0.00  0.00    +0.000 A 
ATOM     15  CZ  PHE B   1       5.515  23.574  -0.976  0.00  0.00    +0.000 A 
ENDBRANCH   9  10
ENDBRANCH   1   9
TORSDOF 5
