REMARK  Name = /storage/kiran-stuff/aaRS/phase2/energy_scoring/vina_182jobs/anc_prors_edit_PHE_PHE/ligand.h.pdb
REMARK  5 active torsions:
REMARK  status: ('A' for Active; 'I' for Inactive)
REMARK    1  A    between atoms: N_1  and  CA_2
REMARK    2  A    between atoms: CA_2  and  C_3
REMARK    3  A    between atoms: CA_2  and  CB_5
REMARK    4  A    between atoms: C_3  and  O_4
REMARK    5  A    between atoms: CB_5  and  CG_6
REMARK                            x       y       z     vdW  Elec       q    Type
REMARK                         _______ _______ _______ _____ _____    ______ ____
ROOT
ATOM      1  CA  PHE B   1       6.320  22.760  -6.849  0.00  0.00    +0.000 C 
ENDROOT
BRANCH   1   2
ATOM      2  N   PHE B   1       7.095  21.796  -6.071  0.00  0.00    +0.000 NA
ATOM      3  H   PHE B   1       7.039  20.878  -6.513  0.00  0.00    +0.000 HD
ATOM      4  H   PHE B   1       6.718  21.741  -5.125  0.00  0.00    +0.000 HD
ENDBRANCH   1   2
BRANCH   1   5
ATOM      5  C   PHE B   1       6.848  22.853  -8.279  0.00  0.00    +0.000 C 
ATOM      6  OXT PHE B   1       6.132  23.368  -9.159  0.00  0.00    +0.000 OA
BRANCH   5   7
ATOM      7  O   PHE B   1       7.969  22.425  -8.582  0.00  0.00    +0.000 OA
ATOM      8  H   PHE B   1       8.515  22.036  -7.927  0.00  0.00    +0.000 HD
ENDBRANCH   5   7
ENDBRANCH   1   5
BRANCH   1   9
ATOM      9  CB  PHE B   1       6.376  24.156  -6.221  0.00  0.00    +0.000 C 
BRANCH   9  10
ATOM     10  CG  PHE B   1       6.188  24.155  -4.737  0.00  0.00    +0.000 A 
ATOM     11  CD1 PHE B   1       7.225  24.568  -3.905  0.00  0.00    +0.000 A 
ATOM     12  CD2 PHE B   1       4.989  23.750  -4.189  0.00  0.00    +0.000 A 
ATOM     13  CE1 PHE B   1       7.051  24.550  -2.539  0.00  0.00    +0.000 A 
ATOM     14  CE2 PHE B   1       4.818  23.737  -2.822  0.00  0.00    +0.000 A 
ATOM     15  CZ  PHE B   1       5.846  24.139  -1.984  0.00  0.00    +0.000 A 
ENDBRANCH   9  10
ENDBRANCH   1   9
TORSDOF 5
