REMARK  Name = /storage/kiran-stuff/aaRS/phase2/energy_scoring/vina_182jobs/anc_thrrs_cat_ALA_ALA/ligand.h.pdb
REMARK  4 active torsions:
REMARK  status: ('A' for Active; 'I' for Inactive)
REMARK    1  A    between atoms: N_1  and  CA_2
REMARK    2  A    between atoms: CA_2  and  C_3
REMARK    3  A    between atoms: CA_2  and  CB_5
REMARK    4  A    between atoms: C_3  and  O_4
REMARK                            x       y       z     vdW  Elec       q    Type
REMARK                         _______ _______ _______ _____ _____    ______ ____
ROOT
ATOM      1  CA  ALA B   1       0.418   6.381 -12.668  0.00  0.00    +0.000 C 
ATOM      2  CB  ALA B   1       0.706   6.124 -11.211  0.00  0.00    +0.000 C 
ENDROOT
BRANCH   1   3
ATOM      3  N   ALA B   1       0.377   7.829 -12.882  0.00  0.00    +0.000 NA
ATOM      4  H   ALA B   1       0.183   8.023 -13.864  0.00  0.00    +0.000 HD
ATOM      5  H   ALA B   1       1.277   8.236 -12.626  0.00  0.00    +0.000 HD
ENDBRANCH   1   3
BRANCH   1   6
ATOM      6  C   ALA B   1      -0.866   5.738 -13.078  0.00  0.00    +0.000 C 
ATOM      7  OXT ALA B   1      -0.847   4.629 -13.629  0.00  0.00    +0.000 OA
BRANCH   6   8
ATOM      8  O   ALA B   1      -1.947   6.312 -12.879  0.00  0.00    +0.000 OA
ATOM      9  H   ALA B   1      -1.961   7.150 -12.462  0.00  0.00    +0.000 HD
ENDBRANCH   6   8
ENDBRANCH   1   6
TORSDOF 3
