REMARK  Name = /storage/kiran-stuff/aaRS/phase2/energy_scoring/vina_182jobs/anc_thrrs_cat_ALA_ALA/ligand.h.pdb
REMARK  4 active torsions:
REMARK  status: ('A' for Active; 'I' for Inactive)
REMARK    1  A    between atoms: N_1  and  CA_2
REMARK    2  A    between atoms: CA_2  and  C_3
REMARK    3  A    between atoms: CA_2  and  CB_5
REMARK    4  A    between atoms: C_3  and  O_4
REMARK                            x       y       z     vdW  Elec       q    Type
REMARK                         _______ _______ _______ _____ _____    ______ ____
ROOT
ATOM      1  CA  ALA B   1       0.673   6.390 -12.748  0.00  0.00    +0.000 C 
ATOM      2  CB  ALA B   1       0.572   6.085 -11.275  0.00  0.00    +0.000 C 
ENDROOT
BRANCH   1   3
ATOM      3  N   ALA B   1       0.187   7.754 -12.971  0.00  0.00    +0.000 NA
ATOM      4  H   ALA B   1       0.248   7.979 -13.964  0.00  0.00    +0.000 HD
ATOM      5  H   ALA B   1       0.759   8.410 -12.438  0.00  0.00    +0.000 HD
ENDBRANCH   1   3
BRANCH   1   6
ATOM      6  C   ALA B   1      -0.106   5.401 -13.550  0.00  0.00    +0.000 C 
ATOM      7  OXT ALA B   1       0.491   4.524 -14.189  0.00  0.00    +0.000 OA
BRANCH   6   8
ATOM      8  O   ALA B   1      -1.344   5.460 -13.588  0.00  0.00    +0.000 OA
ATOM      9  H   ALA B   1      -1.796   6.123 -13.105  0.00  0.00    +0.000 HD
ENDBRANCH   6   8
ENDBRANCH   1   6
TORSDOF 3
