REMARK  Name = /storage/kiran-stuff/aaRS/phase2/energy_scoring/vina_182jobs/modern_prours_pro_PRO/ligand.h.pdb
REMARK  2 active torsions:
REMARK  status: ('A' for Active; 'I' for Inactive)
REMARK    1  A    between atoms: CA_2  and  C_3
REMARK    2  A    between atoms: C_3  and  O_4
REMARK                            x       y       z     vdW  Elec       q    Type
REMARK                         _______ _______ _______ _____ _____    ______ ____
ROOT
ATOM      1  N   PRO C   1       3.539 -11.860 -17.409  0.00  0.00    +0.000 NA
ATOM      2  CA  PRO C   1       3.637 -11.008 -16.238  0.00  0.00    +0.000 C 
ATOM      3  CB  PRO C   1       2.218 -10.653 -15.970  0.00  0.00    +0.000 C 
ATOM      4  CG  PRO C   1       1.727 -10.414 -17.290  0.00  0.00    +0.000 C 
ATOM      5  CD  PRO C   1       2.553 -11.242 -18.196  0.00  0.00    +0.000 C 
ATOM      6  H   PRO C   1       4.429 -11.897 -17.906  0.00  0.00    +0.000 HD
ENDROOT
BRANCH   2   7
ATOM      7  C   PRO C   1       4.326 -11.594 -15.047  0.00  0.00    +0.000 C 
ATOM      8  OXT PRO C   1       4.968 -12.639 -15.187  0.00  0.00    +0.000 OA
BRANCH   7   9
ATOM      9  O   PRO C   1       4.246 -10.994 -13.968  0.00  0.00    +0.000 OA
ATOM     10  H   PRO C   1       3.747 -10.203 -13.908  0.00  0.00    +0.000 HD
ENDBRANCH   7   9
ENDBRANCH   2   7
TORSDOF 2
