REMARK  Name = /storage/kiran-stuff/aaRS/phase2/energy_scoring/vina_182jobs/modern_prours_pro_PRO/ligand.h.pdb
REMARK  355 active torsions:
REMARK  status: ('A' for Active; 'I' for Inactive)
REMARK    1  A    between atoms: P_2  and  OP1_3
REMARK    2  A    between atoms: P_2  and  OP2_4
REMARK    3  A    between atoms: P_2  and  O5'_5
REMARK    4  A    between atoms: O5'_5  and  C5'_6
REMARK    5  A    between atoms: C5'_6  and  C4'_7
REMARK    6  A    between atoms: C3'_9  and  O3'_10
REMARK    7  A    between atoms: O3'_10  and  P_22
REMARK    8  A    between atoms: C2'_11  and  O2'_12
REMARK    9  A    between atoms: C1'_13  and  N1_14
REMARK   10  A    between atoms: P_22  and  OP1_23
REMARK   11  A    between atoms: P_22  and  O5'_25
REMARK   12  A    between atoms: O5'_25  and  C5'_26
REMARK   13  A    between atoms: C5'_26  and  C4'_27
REMARK   14  A    between atoms: C3'_29  and  O3'_30
REMARK   15  A    between atoms: O3'_30  and  P_42
REMARK   16  A    between atoms: C2'_31  and  O2'_32
REMARK   17  A    between atoms: C1'_33  and  N1_34
REMARK   18  A    between atoms: P_42  and  OP1_43
REMARK   19  A    between atoms: P_42  and  O5'_45
REMARK   20  A    between atoms: O5'_45  and  C5'_46
REMARK   21  A    between atoms: C5'_46  and  C4'_47
REMARK   22  A    between atoms: C3'_49  and  O3'_50
REMARK   23  A    between atoms: O3'_50  and  P_64
REMARK   24  A    between atoms: C2'_51  and  O2'_52
REMARK   25  A    between atoms: C1'_53  and  N9_54
REMARK   26  A    between atoms: C6_58  and  N6_59
REMARK   27  A    between atoms: P_64  and  OP1_65
REMARK   28  A    between atoms: P_64  and  O5'_67
REMARK   29  A    between atoms: O5'_67  and  C5'_68
REMARK   30  A    between atoms: C5'_68  and  C4'_69
REMARK   31  A    between atoms: C3'_71  and  O3'_72
REMARK   32  A    between atoms: O3'_72  and  P_86
REMARK   33  A    between atoms: C2'_73  and  O2'_74
REMARK   34  A    between atoms: C1'_75  and  N9_76
REMARK   35  A    between atoms: C6_80  and  N6_81
REMARK   36  A    between atoms: P_86  and  OP1_87
REMARK   37  A    between atoms: P_86  and  O5'_89
REMARK   38  A    between atoms: O5'_89  and  C5'_90
REMARK   39  A    between atoms: C5'_90  and  C4'_91
REMARK   40  A    between atoms: C3'_93  and  O3'_94
REMARK   41  A    between atoms: O3'_94  and  P_106
REMARK   42  A    between atoms: C2'_95  and  O2'_96
REMARK   43  A    between atoms: C1'_97  and  N1_98
REMARK   44  A    between atoms: P_106  and  OP1_107
REMARK   45  A    between atoms: P_106  and  O5'_109
REMARK   46  A    between atoms: O5'_109  and  C5'_110
REMARK   47  A    between atoms: C5'_110  and  C4'_111
REMARK   48  A    between atoms: C3'_113  and  O3'_114
REMARK   49  A    between atoms: O3'_114  and  P_128
REMARK   50  A    between atoms: C2'_115  and  O2'_116
REMARK   51  A    between atoms: C1'_117  and  N9_118
REMARK   52  A    between atoms: P_128  and  OP2_130
REMARK   53  A    between atoms: P_128  and  O5'_131
REMARK   54  A    between atoms: O5'_131  and  C5'_132
REMARK   55  A    between atoms: C5'_132  and  C4'_133
REMARK   56  A    between atoms: C3'_135  and  O3'_136
REMARK   57  A    between atoms: O3'_136  and  P_148
REMARK   58  A    between atoms: C2'_137  and  O2'_138
REMARK   59  A    between atoms: C1'_139  and  N1_140
REMARK   60  A    between atoms: P_148  and  OP2_150
REMARK   61  A    between atoms: P_148  and  O5'_151
REMARK   62  A    between atoms: O5'_151  and  C5'_152
REMARK   63  A    between atoms: C5'_152  and  C4'_153
REMARK   64  A    between atoms: C3'_155  and  O3'_156
REMARK   65  A    between atoms: O3'_156  and  P_168
REMARK   66  A    between atoms: C2'_157  and  O2'_158
REMARK   67  A    between atoms: C1'_159  and  N1_160
REMARK   68  A    between atoms: P_168  and  OP1_169
REMARK   69  A    between atoms: P_168  and  O5'_171
REMARK   70  A    between atoms: O5'_171  and  C5'_172
REMARK   71  A    between atoms: C5'_172  and  C4'_173
REMARK   72  A    between atoms: C2'_177  and  O2'_178
REMARK   73  A    between atoms: C6_184  and  N6_185
REMARK   74  A    between atoms: P_190  and  OP2_192
REMARK   75  A    between atoms: C2'_199  and  O2'_200
REMARK   76  A    between atoms: C1'_201  and  N1_202
REMARK   77  A    between atoms: P_210  and  OP1_211
REMARK   78  A    between atoms: C2'_219  and  O2'_220
REMARK   79  A    between atoms: C1'_221  and  N1_222
REMARK   80  A    between atoms: P_230  and  OP1_231
REMARK   81  A    between atoms: C2'_239  and  O2'_240
REMARK   82  A    between atoms: C1'_241  and  N1_242
REMARK   83  A    between atoms: P_250  and  OP1_251
REMARK   84  A    between atoms: C2'_259  and  O2'_260
REMARK   85  A    between atoms: C1'_261  and  N1_262
REMARK   86  A    between atoms: P_270  and  OP1_271
REMARK   87  A    between atoms: C2'_279  and  O2'_280
REMARK   88  A    between atoms: C1'_281  and  N9_282
REMARK   89  A    between atoms: C6_286  and  N6_287
REMARK   90  A    between atoms: P_292  and  OP1_293
REMARK   91  A    between atoms: C2'_301  and  O2'_302
REMARK   92  A    between atoms: C1'_303  and  N1_304
REMARK   93  A    between atoms: P_312  and  OP1_313
REMARK   94  A    between atoms: C2'_321  and  O2'_322
REMARK   95  A    between atoms: C1'_323  and  N1_324
REMARK   96  A    between atoms: P_332  and  OP2_334
REMARK   97  A    between atoms: C2'_341  and  O2'_342
REMARK   98  A    between atoms: C1'_343  and  N1_344
REMARK   99  A    between atoms: P_352  and  OP1_353
REMARK  100  A    between atoms: C2'_361  and  O2'_362
REMARK  101  A    between atoms: C1'_363  and  N9_364
REMARK  102  A    between atoms: P_375  and  OP1_376
REMARK  103  A    between atoms: C2'_384  and  O2'_385
REMARK  104  A    between atoms: C1'_386  and  N9_387
REMARK  105  A    between atoms: C6_391  and  N6_392
REMARK  106  A    between atoms: P_397  and  OP1_398
REMARK  107  A    between atoms: C2'_406  and  O2'_407
REMARK  108  A    between atoms: C1'_408  and  N9_409
REMARK  109  A    between atoms: C6_413  and  N6_414
REMARK  110  A    between atoms: P_419  and  OP1_420
REMARK  111  A    between atoms: C2'_428  and  O2'_429
REMARK  112  A    between atoms: C1'_430  and  N9_431
REMARK  113  A    between atoms: C6_435  and  N6_436
REMARK  114  A    between atoms: P_441  and  OP1_442
REMARK  115  A    between atoms: C2'_450  and  O2'_451
REMARK  116  A    between atoms: C1'_452  and  N1_453
REMARK  117  A    between atoms: P_461  and  OP1_462
REMARK  118  A    between atoms: C2'_470  and  O2'_471
REMARK  119  A    between atoms: C1'_472  and  N1_473
REMARK  120  A    between atoms: P_481  and  OP2_483
REMARK  121  A    between atoms: C2'_490  and  O2'_491
REMARK  122  A    between atoms: C1'_492  and  N1_493
REMARK  123  A    between atoms: P_501  and  OP2_503
REMARK  124  A    between atoms: C2'_510  and  O2'_511
REMARK  125  A    between atoms: C1'_512  and  N1_513
REMARK  126  A    between atoms: P_521  and  OP2_523
REMARK  127  A    between atoms: C2'_530  and  O2'_531
REMARK  128  A    between atoms: C1'_532  and  N1_533
REMARK  129  A    between atoms: P_541  and  OP2_543
REMARK  130  A    between atoms: C2'_550  and  O2'_551
REMARK  131  A    between atoms: C1'_552  and  N1_553
REMARK  132  A    between atoms: P_561  and  OP2_563
REMARK  133  A    between atoms: C2'_570  and  O2'_571
REMARK  134  A    between atoms: C1'_572  and  N1_573
REMARK  135  A    between atoms: P_581  and  OP1_582
REMARK  136  A    between atoms: C2'_590  and  O2'_591
REMARK  137  A    between atoms: C1'_592  and  N9_593
REMARK  138  A    between atoms: C6_597  and  N6_598
REMARK  139  A    between atoms: P_603  and  OP1_604
REMARK  140  A    between atoms: C2'_612  and  O2'_613
REMARK  141  A    between atoms: C1'_614  and  N9_615
REMARK  142  A    between atoms: C6_619  and  N6_620
REMARK  143  A    between atoms: P_625  and  OP1_626
REMARK  144  A    between atoms: C2'_634  and  O2'_635
REMARK  145  A    between atoms: C1'_636  and  N9_637
REMARK  146  A    between atoms: C6_641  and  N6_642
REMARK  147  A    between atoms: P_647  and  OP1_648
REMARK  148  A    between atoms: C2'_656  and  O2'_657
REMARK  149  A    between atoms: C1'_658  and  N9_659
REMARK  150  A    between atoms: C6_663  and  N6_664
REMARK  151  A    between atoms: P_669  and  OP1_670
REMARK  152  A    between atoms: C2'_678  and  O2'_679
REMARK  153  A    between atoms: C1'_680  and  N1_681
REMARK  154  A    between atoms: P_689  and  OP1_690
REMARK  155  A    between atoms: C2'_698  and  O2'_699
REMARK  156  A    between atoms: C1'_700  and  N9_701
REMARK  157  A    between atoms: P_711  and  OP2_713
REMARK  158  A    between atoms: C2'_720  and  O2'_721
REMARK  159  A    between atoms: C1'_722  and  N9_723
REMARK  160  A    between atoms: P_733  and  OP2_735
REMARK  161  A    between atoms: C2'_742  and  O2'_743
REMARK  162  A    between atoms: C1'_744  and  N1_745
REMARK  163  A    between atoms: P_753  and  OP2_755
REMARK  164  A    between atoms: C2'_762  and  O2'_763
REMARK  165  A    between atoms: C1'_764  and  N9_765
REMARK  166  A    between atoms: P_775  and  OP2_777
REMARK  167  A    between atoms: C2'_784  and  O2'_785
REMARK  168  A    between atoms: C1'_786  and  N1_787
REMARK  169  A    between atoms: P_795  and  OP1_796
REMARK  170  A    between atoms: C2'_804  and  O2'_805
REMARK  171  A    between atoms: C1'_806  and  N1_807
REMARK  172  A    between atoms: P_815  and  OP1_816
REMARK  173  A    between atoms: C2'_824  and  O2'_825
REMARK  174  A    between atoms: C1'_826  and  N1_827
REMARK  175  A    between atoms: P_835  and  OP2_837
REMARK  176  A    between atoms: C2'_844  and  O2'_845
REMARK  177  A    between atoms: C1'_846  and  N1_847
REMARK  178  A    between atoms: P_855  and  OP1_856
REMARK  179  A    between atoms: C2'_864  and  O2'_865
REMARK  180  A    between atoms: C1'_866  and  N1_867
REMARK  181  A    between atoms: P_875  and  OP1_876
REMARK  182  A    between atoms: C2'_884  and  O2'_885
REMARK  183  A    between atoms: C1'_886  and  N9_887
REMARK  184  A    between atoms: C6_891  and  N6_892
REMARK  185  A    between atoms: P_897  and  OP2_899
REMARK  186  A    between atoms: C2'_906  and  O2'_907
REMARK  187  A    between atoms: C1'_908  and  N1_909
REMARK  188  A    between atoms: P_917  and  OP2_919
REMARK  189  A    between atoms: C2'_926  and  O2'_927
REMARK  190  A    between atoms: C1'_928  and  N1_929
REMARK  191  A    between atoms: P_937  and  OP2_939
REMARK  192  A    between atoms: C2'_946  and  O2'_947
REMARK  193  A    between atoms: C1'_948  and  N1_949
REMARK  194  A    between atoms: P_957  and  OP2_959
REMARK  195  A    between atoms: C2'_966  and  O2'_967
REMARK  196  A    between atoms: C1'_968  and  N1_969
REMARK  197  A    between atoms: P_977  and  OP2_979
REMARK  198  A    between atoms: C2'_986  and  O2'_987
REMARK  199  A    between atoms: C1'_988  and  N9_989
REMARK  200  A    between atoms: P_999  and  OP2_1001
REMARK  201  A    between atoms: C2'_1008  and  O2'_1009
REMARK  202  A    between atoms: C1'_1010  and  N1_1011
REMARK  203  A    between atoms: P_1019  and  OP2_1021
REMARK  204  A    between atoms: C2'_1028  and  O2'_1029
REMARK  205  A    between atoms: C1'_1030  and  N1_1031
REMARK  206  A    between atoms: P_1039  and  OP1_1040
REMARK  207  A    between atoms: C2'_1048  and  O2'_1049
REMARK  208  A    between atoms: C1'_1050  and  N1_1051
REMARK  209  A    between atoms: P_1059  and  OP1_1060
REMARK  210  A    between atoms: C2'_1068  and  O2'_1069
REMARK  211  A    between atoms: C1'_1070  and  N1_1071
REMARK  212  A    between atoms: P_1079  and  OP1_1080
REMARK  213  A    between atoms: C2'_1088  and  O2'_1089
REMARK  214  A    between atoms: C1'_1090  and  N9_1091
REMARK  215  A    between atoms: C6_1095  and  N6_1096
REMARK  216  A    between atoms: P_1101  and  OP1_1102
REMARK  217  A    between atoms: C2'_1110  and  O2'_1111
REMARK  218  A    between atoms: C1'_1112  and  N9_1113
REMARK  219  A    between atoms: C6_1117  and  N6_1118
REMARK  220  A    between atoms: P_1123  and  OP1_1124
REMARK  221  A    between atoms: C2'_1132  and  O2'_1133
REMARK  222  A    between atoms: C1'_1134  and  N9_1135
REMARK  223  A    between atoms: C6_1139  and  N6_1140
REMARK  224  A    between atoms: P_1145  and  OP2_1147
REMARK  225  A    between atoms: C2'_1154  and  O2'_1155
REMARK  226  A    between atoms: C1'_1156  and  N9_1157
REMARK  227  A    between atoms: P_1167  and  OP2_1169
REMARK  228  A    between atoms: C2'_1176  and  O2'_1177
REMARK  229  A    between atoms: C1'_1178  and  N9_1179
REMARK  230  A    between atoms: P_1189  and  OP2_1191
REMARK  231  A    between atoms: C2'_1198  and  O2'_1199
REMARK  232  A    between atoms: C1'_1200  and  N1_1201
REMARK  233  A    between atoms: P_1209  and  OP1_1210
REMARK  234  A    between atoms: C2'_1218  and  O2'_1219
REMARK  235  A    between atoms: C1'_1220  and  N9_1221
REMARK  236  A    between atoms: P_1231  and  OP2_1233
REMARK  237  A    between atoms: C2'_1240  and  O2'_1241
REMARK  238  A    between atoms: C1'_1242  and  N9_1243
REMARK  239  A    between atoms: P_1254  and  OP1_1255
REMARK  240  A    between atoms: C2'_1263  and  O2'_1264
REMARK  241  A    between atoms: C1'_1265  and  N9_1266
REMARK  242  A    between atoms: C6_1270  and  N6_1271
REMARK  243  A    between atoms: P_1276  and  OP1_1277
REMARK  244  A    between atoms: C2'_1285  and  O2'_1286
REMARK  245  A    between atoms: C1'_1287  and  N1_1288
REMARK  246  A    between atoms: P_1296  and  OP2_1298
REMARK  247  A    between atoms: C3'_1303  and  O3'_1304
REMARK  248  A    between atoms: O3'_1304  and  P_1316
REMARK  249  A    between atoms: C2'_1305  and  O2'_1306
REMARK  250  A    between atoms: P_1316  and  OP2_1318
REMARK  251  A    between atoms: P_1316  and  O5'_1319
REMARK  252  A    between atoms: O5'_1319  and  C5'_1320
REMARK  253  A    between atoms: C5'_1320  and  C4'_1321
REMARK  254  A    between atoms: C3'_1323  and  O3'_1324
REMARK  255  A    between atoms: O3'_1324  and  P_1338
REMARK  256  A    between atoms: C2'_1325  and  O2'_1326
REMARK  257  A    between atoms: C1'_1327  and  N9_1328
REMARK  258  A    between atoms: P_1338  and  OP2_1340
REMARK  259  A    between atoms: P_1338  and  O5'_1341
REMARK  260  A    between atoms: O5'_1341  and  C5'_1342
REMARK  261  A    between atoms: C5'_1342  and  C4'_1343
REMARK  262  A    between atoms: C3'_1345  and  O3'_1346
REMARK  263  A    between atoms: O3'_1346  and  P_1358
REMARK  264  A    between atoms: C2'_1347  and  O2'_1348
REMARK  265  A    between atoms: C1'_1349  and  N1_1350
REMARK  266  A    between atoms: P_1358  and  OP2_1360
REMARK  267  A    between atoms: P_1358  and  O5'_1361
REMARK  268  A    between atoms: O5'_1361  and  C5'_1362
REMARK  269  A    between atoms: C5'_1362  and  C4'_1363
REMARK  270  A    between atoms: C3'_1365  and  O3'_1366
REMARK  271  A    between atoms: O3'_1366  and  P_1380
REMARK  272  A    between atoms: C2'_1367  and  O2'_1368
REMARK  273  A    between atoms: C1'_1369  and  N9_1370
REMARK  274  A    between atoms: P_1380  and  OP2_1382
REMARK  275  A    between atoms: P_1380  and  O5'_1383
REMARK  276  A    between atoms: O5'_1383  and  C5'_1384
REMARK  277  A    between atoms: C5'_1384  and  C4'_1385
REMARK  278  A    between atoms: C3'_1387  and  O3'_1388
REMARK  279  A    between atoms: O3'_1388  and  P_1402
REMARK  280  A    between atoms: C2'_1389  and  O2'_1390
REMARK  281  A    between atoms: C1'_1391  and  N9_1392
REMARK  282  A    between atoms: P_1402  and  OP2_1404
REMARK  283  A    between atoms: P_1402  and  O5'_1405
REMARK  284  A    between atoms: O5'_1405  and  C5'_1406
REMARK  285  A    between atoms: C5'_1406  and  C4'_1407
REMARK  286  A    between atoms: C3'_1409  and  O3'_1410
REMARK  287  A    between atoms: O3'_1410  and  P_1424
REMARK  288  A    between atoms: C2'_1411  and  O2'_1412
REMARK  289  A    between atoms: C1'_1413  and  N9_1414
REMARK  290  A    between atoms: P_1424  and  OP2_1426
REMARK  291  A    between atoms: P_1424  and  O5'_1427
REMARK  292  A    between atoms: O5'_1427  and  C5'_1428
REMARK  293  A    between atoms: C5'_1428  and  C4'_1429
REMARK  294  A    between atoms: C3'_1431  and  O3'_1432
REMARK  295  A    between atoms: O3'_1432  and  P_1446
REMARK  296  A    between atoms: C2'_1433  and  O2'_1434
REMARK  297  A    between atoms: C1'_1435  and  N9_1436
REMARK  298  A    between atoms: C6_1440  and  N6_1441
REMARK  299  A    between atoms: P_1446  and  OP1_1447
REMARK  300  A    between atoms: P_1446  and  O5'_1449
REMARK  301  A    between atoms: O5'_1449  and  C5'_1450
REMARK  302  A    between atoms: C5'_1450  and  C4'_1451
REMARK  303  A    between atoms: C3'_1453  and  O3'_1454
REMARK  304  A    between atoms: O3'_1454  and  P_1468
REMARK  305  A    between atoms: C2'_1455  and  O2'_1456
REMARK  306  A    between atoms: C1'_1457  and  N9_1458
REMARK  307  A    between atoms: C6_1462  and  N6_1463
REMARK  308  A    between atoms: P_1468  and  OP1_1469
REMARK  309  A    between atoms: P_1468  and  O5'_1471
REMARK  310  A    between atoms: O5'_1471  and  C5'_1472
REMARK  311  A    between atoms: C5'_1472  and  C4'_1473
REMARK  312  A    between atoms: C3'_1475  and  O3'_1476
REMARK  313  A    between atoms: O3'_1476  and  P_1488
REMARK  314  A    between atoms: C2'_1477  and  O2'_1478
REMARK  315  A    between atoms: C1'_1479  and  N1_1480
REMARK  316  A    between atoms: P_1488  and  OP1_1489
REMARK  317  A    between atoms: P_1488  and  O5'_1491
REMARK  318  A    between atoms: O5'_1491  and  C5'_1492
REMARK  319  A    between atoms: C5'_1492  and  C4'_1493
REMARK  320  A    between atoms: C3'_1495  and  O3'_1496
REMARK  321  A    between atoms: O3'_1496  and  P_1508
REMARK  322  A    between atoms: C2'_1497  and  O2'_1498
REMARK  323  A    between atoms: C1'_1499  and  N1_1500
REMARK  324  A    between atoms: P_1508  and  OP1_1509
REMARK  325  A    between atoms: P_1508  and  O5'_1511
REMARK  326  A    between atoms: O5'_1511  and  C5'_1512
REMARK  327  A    between atoms: C5'_1512  and  C4'_1513
REMARK  328  A    between atoms: C3'_1515  and  O3'_1516
REMARK  329  A    between atoms: O3'_1516  and  P_1528
REMARK  330  A    between atoms: C2'_1517  and  O2'_1518
REMARK  331  A    between atoms: C1'_1519  and  N1_1520
REMARK  332  A    between atoms: P_1528  and  OP1_1529
REMARK  333  A    between atoms: P_1528  and  O5'_1531
REMARK  334  A    between atoms: O5'_1531  and  C5'_1532
REMARK  335  A    between atoms: C5'_1532  and  C4'_1533
REMARK  336  A    between atoms: C3'_1535  and  O3'_1536
REMARK  337  A    between atoms: O3'_1536  and  P_1548
REMARK  338  A    between atoms: C2'_1537  and  O2'_1538
REMARK  339  A    between atoms: C1'_1539  and  N1_1540
REMARK  340  A    between atoms: P_1548  and  OP1_1549
REMARK  341  A    between atoms: P_1548  and  O5'_1551
REMARK  342  A    between atoms: O5'_1551  and  C5'_1552
REMARK  343  A    between atoms: C5'_1552  and  C4'_1553
REMARK  344  A    between atoms: C3'_1555  and  O3'_1556
REMARK  345  A    between atoms: O3'_1556  and  P_1568
REMARK  346  A    between atoms: C2'_1557  and  O2'_1558
REMARK  347  A    between atoms: C1'_1559  and  N1_1560
REMARK  348  A    between atoms: P_1568  and  OP1_1569
REMARK  349  A    between atoms: P_1568  and  O5'_1571
REMARK  350  A    between atoms: O5'_1571  and  C5'_1572
REMARK  351  A    between atoms: C5'_1572  and  C4'_1573
REMARK  352  A    between atoms: C3'_1575  and  O3'_1576
REMARK  353  A    between atoms: C2'_1577  and  O2'_1578
REMARK  354  A    between atoms: C1'_1579  and  N9_1580
REMARK  355  A    between atoms: C6_1584  and  N6_1585
REMARK                            x       y       z     vdW  Elec       q    Type
REMARK                         _______ _______ _______ _____ _____    ______ ____
ROOT
ATOM      1  C4' A   B   9      13.267  11.784   6.019  0.00  0.00    +0.000 C 
ATOM      2  O4' A   B   9      13.784  12.106   4.698  0.00  0.00    +0.000 OA
ATOM      3  C3' A   B   9      11.902  12.447   6.113  0.00  0.00    +0.000 C 
ATOM      4  O3' A   B   9      12.017  13.741   6.693  0.00  0.00    +0.000 OA
ATOM      5  C2' A   B   9      11.478  12.557   4.644  0.00  0.00    +0.000 C 
ATOM      6  C1' A   B   9      12.813  12.813   3.957  0.00  0.00    +0.000 C 
ATOM      7  N9  A   B   9      12.878  12.326   2.571  0.00  0.00    +0.000 N 
ATOM      8  C8  A   B   9      12.697  11.041   2.129  0.00  0.00    +0.000 A 
ATOM      9  N7  A   B   9      12.824  10.906   0.830  0.00  0.00    +0.000 NA
ATOM     10  C5  A   B   9      13.108  12.193   0.390  0.00  0.00    +0.000 A 
ATOM     11  C6  A   B   9      13.355  12.723  -0.889  0.00  0.00    +0.000 C 
ATOM     12  N1  A   B   9      13.606  14.047  -0.984  0.00  0.00    +0.000 N 
ATOM     13  C2  A   B   9      13.607  14.781   0.138  0.00  0.00    +0.000 C 
ATOM     14  N3  A   B   9      13.388  14.398   1.396  0.00  0.00    +0.000 NA
ATOM     15  C4  A   B   9      13.147  13.079   1.453  0.00  0.00    +0.000 A 
ATOM     16  P   U   B  10      12.069  13.853   8.301  0.00  0.00    +0.000 P 
ATOM     17  OP1 U   B  10      11.346  15.079   8.728  0.00  0.00    +0.000 OA
ATOM     18  O5' U   B  10      11.217  12.586   8.729  0.00  0.00    +0.000 OA
ATOM     19  C5' U   B  10       9.945  12.748   9.361  0.00  0.00    +0.000 C 
ATOM     20  C4' U   B  10      10.085  12.564  10.854  0.00  0.00    +0.000 C 
ATOM     21  O4' U   B  10      10.341  13.847  11.481  0.00  0.00    +0.000 OA
ATOM     22  C3' U   B  10       8.854  12.030  11.567  0.00  0.00    +0.000 C 
ATOM     23  O3' U   B  10       8.749  10.620  11.478  0.00  0.00    +0.000 OA
ATOM     24  C2' U   B  10       9.068  12.534  12.987  0.00  0.00    +0.000 C 
ATOM     25  C1' U   B  10       9.692  13.916  12.732  0.00  0.00    +0.000 C 
ATOM     26  P   U   B  11       7.342   9.910  11.505  0.00  0.00    +0.000 P 
ATOM     27  OP2 U   B  11       6.391  10.753  10.750  0.00  0.00    +0.000 OA
ATOM     28  O5' U   B  11       6.940   9.958  13.038  0.00  0.00    +0.000 OA
ATOM     29  C5' U   B  11       7.776   9.394  14.032  0.00  0.00    +0.000 C 
ATOM     30  C4' U   B  11       7.253   9.686  15.414  0.00  0.00    +0.000 C 
ATOM     31  O4' U   B  11       7.354  11.104  15.699  0.00  0.00    +0.000 OA
ATOM     32  C3' U   B  11       5.787   9.372  15.626  0.00  0.00    +0.000 C 
ATOM     33  O3' U   B  11       5.586   7.982  15.846  0.00  0.00    +0.000 OA
ATOM     34  C2' U   B  11       5.441  10.250  16.822  0.00  0.00    +0.000 C 
ATOM     35  C1' U   B  11       6.290  11.497  16.548  0.00  0.00    +0.000 C 
ATOM     36  P   U   B  12       4.136   7.369  15.798  0.00  0.00    +0.000 P 
ATOM     37  OP2 U   B  12       3.280   8.195  14.919  0.00  0.00    +0.000 OA
ATOM     38  O5' U   B  12       3.657   7.559  17.307  0.00  0.00    +0.000 OA
ATOM     39  C5' U   B  12       2.292   7.520  17.635  0.00  0.00    +0.000 C 
ATOM     40  C4' U   B  12       1.986   8.418  18.809  0.00  0.00    +0.000 C 
ATOM     41  O4' U   B  12       2.622   9.710  18.640  0.00  0.00    +0.000 OA
ATOM     42  C3' U   B  12       0.508   8.742  18.952  0.00  0.00    +0.000 C 
ATOM     43  O3' U   B  12      -0.170   7.705  19.648  0.00  0.00    +0.000 OA
ATOM     44  C2' U   B  12       0.526  10.070  19.691  0.00  0.00    +0.000 C 
ATOM     45  C1' U   B  12       1.759  10.740  19.069  0.00  0.00    +0.000 C 
ATOM     46  P   C   B  13      -1.126   6.717  18.885  0.00  0.00    +0.000 P 
ATOM     47  OP2 C   B  13      -0.939   6.888  17.429  0.00  0.00    +0.000 OA
ATOM     48  O5' C   B  13      -2.556   7.283  19.291  0.00  0.00    +0.000 OA
ATOM     49  C5' C   B  13      -3.223   8.203  18.457  0.00  0.00    +0.000 C 
ATOM     50  C4' C   B  13      -3.721   9.391  19.245  0.00  0.00    +0.000 C 
ATOM     51  O4' C   B  13      -2.768  10.478  19.146  0.00  0.00    +0.000 OA
ATOM     52  C3' C   B  13      -5.026   9.975  18.731  0.00  0.00    +0.000 C 
ATOM     53  O3' C   B  13      -6.155   9.276  19.230  0.00  0.00    +0.000 OA
ATOM     54  C2' C   B  13      -4.936  11.417  19.196  0.00  0.00    +0.000 C 
ATOM     55  C1' C   B  13      -3.448  11.704  18.974  0.00  0.00    +0.000 C 
ATOM     56  P   A   B  14      -7.322   8.852  18.251  0.00  0.00    +0.000 P 
ATOM     57  OP2 A   B  14      -6.736   8.307  17.003  0.00  0.00    +0.000 OA
ATOM     58  O5' A   B  14      -7.999  10.253  17.910  0.00  0.00    +0.000 OA
ATOM     59  C5' A   B  14      -8.494  11.090  18.947  0.00  0.00    +0.000 C 
ATOM     60  C4' A   B  14      -8.852  12.455  18.412  0.00  0.00    +0.000 C 
ATOM     61  O4' A   B  14      -7.673  13.115  17.898  0.00  0.00    +0.000 OA
ATOM     62  C3' A   B  14      -9.814  12.464  17.236  0.00  0.00    +0.000 C 
ATOM     63  O3' A   B  14     -11.163  12.305  17.650  0.00  0.00    +0.000 OA
ATOM     64  C2' A   B  14      -9.531  13.820  16.603  0.00  0.00    +0.000 C 
ATOM     65  C1' A   B  14      -8.019  13.939  16.800  0.00  0.00    +0.000 C 
ATOM     66  P   U   B  15     -12.174  11.415  16.802  0.00  0.00    +0.000 P 
ATOM     67  OP2 U   B  15     -11.470  10.180  16.362  0.00  0.00    +0.000 OA
ATOM     68  O5' U   B  15     -12.459  12.298  15.508  0.00  0.00    +0.000 OA
ATOM     69  C5' U   B  15     -12.862  13.654  15.631  0.00  0.00    +0.000 C 
ATOM     70  C4' U   B  15     -12.874  14.334  14.283  0.00  0.00    +0.000 C 
ATOM     71  O4' U   B  15     -11.534  14.298  13.716  0.00  0.00    +0.000 OA
ATOM     72  C3' U   B  15     -13.799  13.680  13.260  0.00  0.00    +0.000 C 
ATOM     73  O3' U   B  15     -14.440  14.680  12.478  0.00  0.00    +0.000 OA
ATOM     74  C2' U   B  15     -12.845  12.868  12.401  0.00  0.00    +0.000 C 
ATOM     75  C1' U   B  15     -11.577  13.719  12.430  0.00  0.00    +0.000 C 
ATOM     76  P   C   B  16     -16.000  14.752  12.477  0.00  0.00    +0.000 P 
ATOM     77  OP2 C   B  16     -16.531  13.505  11.875  0.00  0.00    +0.000 OA
ATOM     78  O5' C   B  16     -16.261  15.937  11.449  0.00  0.00    +0.000 OA
ATOM     79  C5' C   B  16     -15.727  15.886  10.135  0.00  0.00    +0.000 C 
ATOM     80  C4' C   B  16     -15.972  17.193   9.437  0.00  0.00    +0.000 C 
ATOM     81  O4' C   B  16     -17.382  17.508   9.492  0.00  0.00    +0.000 OA
ATOM     82  C3' C   B  16     -15.288  18.402  10.049  0.00  0.00    +0.000 C 
ATOM     83  O3' C   B  16     -13.941  18.519   9.621  0.00  0.00    +0.000 OA
ATOM     84  C2' C   B  16     -16.165  19.551   9.566  0.00  0.00    +0.000 C 
ATOM     85  C1' C   B  16     -17.555  18.911   9.582  0.00  0.00    +0.000 C 
ATOM     86  P   C   B  17     -12.763  18.744  10.668  0.00  0.00    +0.000 P 
ATOM     87  OP1 C   B  17     -11.478  18.600   9.952  0.00  0.00    +0.000 OA
ATOM     88  O5' C   B  17     -12.947  20.274  11.073  0.00  0.00    +0.000 OA
ATOM     89  C5' C   B  17     -12.770  21.307  10.118  0.00  0.00    +0.000 C 
ATOM     90  C4' C   B  17     -12.863  22.668  10.762  0.00  0.00    +0.000 C 
ATOM     91  O4' C   B  17     -14.236  22.900  11.189  0.00  0.00    +0.000 OA
ATOM     92  C3' C   B  17     -11.988  22.849  12.003  0.00  0.00    +0.000 C 
ATOM     93  O3' C   B  17     -11.470  24.180  12.044  0.00  0.00    +0.000 OA
ATOM     94  C2' C   B  17     -12.974  22.649  13.144  0.00  0.00    +0.000 C 
ATOM     95  C1' C   B  17     -14.253  23.252  12.557  0.00  0.00    +0.000 C 
ATOM     96  P   G   B  18      -9.947  24.463  11.694  0.00  0.00    +0.000 P 
ATOM     97  OP2 G   B  18      -9.826  24.517  10.213  0.00  0.00    +0.000 OA
ATOM     98  O5' G   B  18      -9.199  23.158  12.200  0.00  0.00    +0.000 OA
ATOM     99  C5' G   B  18      -8.128  23.239  13.110  0.00  0.00    +0.000 C 
ATOM    100  C4' G   B  18      -8.389  22.379  14.326  0.00  0.00    +0.000 C 
ATOM    101  O4' G   B  18      -8.659  21.010  13.929  0.00  0.00    +0.000 OA
ATOM    102  C3' G   B  18      -7.227  22.257  15.302  0.00  0.00    +0.000 C 
ATOM    103  O3' G   B  18      -7.134  23.380  16.174  0.00  0.00    +0.000 OA
ATOM    104  C2' G   B  18      -7.549  20.953  16.015  0.00  0.00    +0.000 C 
ATOM    105  C1' G   B  18      -8.098  20.112  14.863  0.00  0.00    +0.000 C 
ATOM    106  P   A   B  19      -5.703  23.932  16.631  0.00  0.00    +0.000 P 
ATOM    107  OP2 A   B  19      -4.816  23.963  15.441  0.00  0.00    +0.000 OA
ATOM    108  O5' A   B  19      -5.160  22.808  17.624  0.00  0.00    +0.000 OA
ATOM    109  C5' A   B  19      -5.816  22.564  18.856  0.00  0.00    +0.000 C 
ATOM    110  C4' A   B  19      -5.211  21.395  19.604  0.00  0.00    +0.000 C 
ATOM    111  O4' A   B  19      -5.343  20.174  18.835  0.00  0.00    +0.000 OA
ATOM    112  C3' A   B  19      -3.721  21.472  19.884  0.00  0.00    +0.000 C 
ATOM    113  O3' A   B  19      -3.409  22.352  20.955  0.00  0.00    +0.000 OA
ATOM    114  C2' A   B  19      -3.405  20.012  20.198  0.00  0.00    +0.000 C 
ATOM    115  C1' A   B  19      -4.295  19.286  19.185  0.00  0.00    +0.000 C 
ATOM    116  P   A   B  20      -1.933  22.988  21.077  0.00  0.00    +0.000 P 
ATOM    117  OP2 A   B  20      -1.436  23.319  19.714  0.00  0.00    +0.000 OA
ATOM    118  O5' A   B  20      -1.050  21.790  21.641  0.00  0.00    +0.000 OA
ATOM    119  C5' A   B  20      -1.335  21.218  22.907  0.00  0.00    +0.000 C 
ATOM    120  C4' A   B  20      -0.533  19.955  23.128  0.00  0.00    +0.000 C 
ATOM    121  O4' A   B  20      -0.875  18.964  22.123  0.00  0.00    +0.000 OA
ATOM    122  C3' A   B  20       0.970  20.103  22.995  0.00  0.00    +0.000 C 
ATOM    123  O3' A   B  20       1.555  20.654  24.170  0.00  0.00    +0.000 OA
ATOM    124  C2' A   B  20       1.405  18.670  22.710  0.00  0.00    +0.000 C 
ATOM    125  C1' A   B  20       0.263  18.182  21.813  0.00  0.00    +0.000 C 
ATOM    126  P   A   B  21       3.049  21.232  24.136  0.00  0.00    +0.000 P 
ATOM    127  OP2 A   B  21       3.267  21.945  22.848  0.00  0.00    +0.000 OA
ATOM    128  O5' A   B  21       3.924  19.903  24.130  0.00  0.00    +0.000 OA
ATOM    129  C5' A   B  21       5.229  19.911  23.603  0.00  0.00    +0.000 C 
ATOM    130  C4' A   B  21       5.679  18.505  23.290  0.00  0.00    +0.000 C 
ATOM    131  O4' A   B  21       4.737  17.871  22.383  0.00  0.00    +0.000 OA
ATOM    132  C3' A   B  21       7.012  18.427  22.563  0.00  0.00    +0.000 C 
ATOM    133  O3' A   B  21       8.097  18.482  23.478  0.00  0.00    +0.000 OA
ATOM    134  C2' A   B  21       6.902  17.107  21.819  0.00  0.00    +0.000 C 
ATOM    135  C1' A   B  21       5.426  17.124  21.406  0.00  0.00    +0.000 C 
ATOM    136  P   C   B  22       9.233  19.572  23.284  0.00  0.00    +0.000 P 
ATOM    137  OP2 C   B  22       8.626  20.816  22.750  0.00  0.00    +0.000 OA
ATOM    138  O5' C   B  22      10.133  18.934  22.142  0.00  0.00    +0.000 OA
ATOM    139  C5' C   B  22      10.687  17.633  22.291  0.00  0.00    +0.000 C 
ATOM    140  C4' C   B  22      11.081  17.047  20.961  0.00  0.00    +0.000 C 
ATOM    141  O4' C   B  22       9.899  16.821  20.146  0.00  0.00    +0.000 OA
ATOM    142  C3' C   B  22      11.952  17.926  20.089  0.00  0.00    +0.000 C 
ATOM    143  O3' C   B  22      13.313  17.912  20.488  0.00  0.00    +0.000 OA
ATOM    144  C2' C   B  22      11.723  17.324  18.711  0.00  0.00    +0.000 C 
ATOM    145  C1' C   B  22      10.223  17.007  18.779  0.00  0.00    +0.000 C 
ATOM    146  P   U   B  23      14.203  19.226  20.333  0.00  0.00    +0.000 P 
ATOM    147  OP2 U   B  23      13.376  20.405  20.685  0.00  0.00    +0.000 OA
ATOM    148  O5' U   B  23      14.494  19.283  18.769  0.00  0.00    +0.000 OA
ATOM    149  C5' U   B  23      15.239  18.256  18.126  0.00  0.00    +0.000 C 
ATOM    150  C4' U   B  23      15.242  18.436  16.629  0.00  0.00    +0.000 C 
ATOM    151  O4' U   B  23      13.892  18.283  16.110  0.00  0.00    +0.000 OA
ATOM    152  C3' U   B  23      15.667  19.804  16.134  0.00  0.00    +0.000 C 
ATOM    153  O3' U   B  23      17.077  19.968  16.131  0.00  0.00    +0.000 OA
ATOM    154  C2' U   B  23      15.057  19.836  14.742  0.00  0.00    +0.000 C 
ATOM    155  C1' U   B  23      13.718  19.129  14.989  0.00  0.00    +0.000 C 
ATOM    156  P   U   B  24      17.716  21.414  16.426  0.00  0.00    +0.000 P 
ATOM    157  OP1 U   B  24      19.185  21.245  16.513  0.00  0.00    +0.000 OA
ATOM    158  O5' U   B  24      17.386  22.229  15.102  0.00  0.00    +0.000 OA
ATOM    159  C5' U   B  24      17.936  21.850  13.846  0.00  0.00    +0.000 C 
ATOM    160  C4' U   B  24      17.330  22.646  12.718  0.00  0.00    +0.000 C 
ATOM    161  O4' U   B  24      15.909  22.351  12.616  0.00  0.00    +0.000 OA
ATOM    162  C3' U   B  24      17.379  24.151  12.878  0.00  0.00    +0.000 C 
ATOM    163  O3' U   B  24      18.648  24.691  12.537  0.00  0.00    +0.000 OA
ATOM    164  C2' U   B  24      16.262  24.601  11.946  0.00  0.00    +0.000 C 
ATOM    165  C1' U   B  24      15.214  23.506  12.185  0.00  0.00    +0.000 C 
ATOM    166  P   U   B  25      19.227  25.967  13.336  0.00  0.00    +0.000 P 
ATOM    167  OP1 U   B  25      20.640  26.153  12.927  0.00  0.00    +0.000 OA
ATOM    168  O5' U   B  25      18.372  27.174  12.747  0.00  0.00    +0.000 OA
ATOM    169  C5' U   B  25      18.466  27.542  11.377  0.00  0.00    +0.000 C 
ATOM    170  C4' U   B  25      17.355  28.480  10.978  0.00  0.00    +0.000 C 
ATOM    171  O4' U   B  25      16.071  27.817  11.143  0.00  0.00    +0.000 OA
ATOM    172  C3' U   B  25      17.221  29.740  11.808  0.00  0.00    +0.000 C 
ATOM    173  O3' U   B  25      18.163  30.741  11.445  0.00  0.00    +0.000 OA
ATOM    174  C2' U   B  25      15.779  30.140  11.533  0.00  0.00    +0.000 C 
ATOM    175  C1' U   B  25      15.091  28.769  11.514  0.00  0.00    +0.000 C 
ATOM    176  P   U   B  26      18.725  31.767  12.559  0.00  0.00    +0.000 P 
ATOM    177  OP1 U   B  26      19.820  32.547  11.936  0.00  0.00    +0.000 OA
ATOM    178  O5' U   B  26      17.491  32.743  12.806  0.00  0.00    +0.000 OA
ATOM    179  C5' U   B  26      17.002  33.584  11.768  0.00  0.00    +0.000 C 
ATOM    180  C4' U   B  26      15.663  34.184  12.126  0.00  0.00    +0.000 C 
ATOM    181  O4' U   B  26      14.694  33.124  12.356  0.00  0.00    +0.000 OA
ATOM    182  C3' U   B  26      15.617  34.996  13.403  0.00  0.00    +0.000 C 
ATOM    183  O3' U   B  26      16.138  36.307  13.240  0.00  0.00    +0.000 OA
ATOM    184  C2' U   B  26      14.132  34.974  13.730  0.00  0.00    +0.000 C 
ATOM    185  C1' U   B  26      13.764  33.538  13.341  0.00  0.00    +0.000 C 
ATOM    186  P   U   B  27      16.831  37.074  14.487  0.00  0.00    +0.000 P 
ATOM    187  OP1 U   B  27      17.441  38.321  13.965  0.00  0.00    +0.000 OA
ATOM    188  O5' U   B  27      15.589  37.468  15.404  0.00  0.00    +0.000 OA
ATOM    189  C5' U   B  27      14.593  38.374  14.941  0.00  0.00    +0.000 C 
ATOM    190  C4' U   B  27      13.408  38.419  15.878  0.00  0.00    +0.000 C 
ATOM    191  O4' U   B  27      12.793  37.103  15.960  0.00  0.00    +0.000 OA
ATOM    192  C3' U   B  27      13.716  38.763  17.320  0.00  0.00    +0.000 C 
ATOM    193  O3' U   B  27      13.900  40.157  17.523  0.00  0.00    +0.000 OA
ATOM    194  C2' U   B  27      12.499  38.204  18.042  0.00  0.00    +0.000 C 
ATOM    195  C1' U   B  27      12.258  36.911  17.257  0.00  0.00    +0.000 C 
ATOM    196  P   U   B  28      14.900  40.697  18.670  0.00  0.00    +0.000 P 
ATOM    197  OP1 U   B  28      15.029  42.162  18.503  0.00  0.00    +0.000 OA
ATOM    198  O5' U   B  28      14.095  40.411  20.013  0.00  0.00    +0.000 OA
ATOM    199  C5' U   B  28      12.867  41.079  20.290  0.00  0.00    +0.000 C 
ATOM    200  C4' U   B  28      12.170  40.487  21.494  0.00  0.00    +0.000 C 
ATOM    201  O4' U   B  28      11.837  39.094  21.239  0.00  0.00    +0.000 OA
ATOM    202  C3' U   B  28      12.984  40.430  22.771  0.00  0.00    +0.000 C 
ATOM    203  O3' U   B  28      13.047  41.682  23.440  0.00  0.00    +0.000 OA
ATOM    204  C2' U   B  28      12.244  39.359  23.562  0.00  0.00    +0.000 C 
ATOM    205  C1' U   B  28      11.896  38.363  22.452  0.00  0.00    +0.000 C 
ATOM    206  P   A   B  29      14.331  42.054  24.347  0.00  0.00    +0.000 P 
ATOM    207  OP2 A   B  29      15.558  41.584  23.652  0.00  0.00    +0.000 OA
ATOM    208  O5' A   B  29      14.131  41.155  25.650  0.00  0.00    +0.000 OA
ATOM    209  C5' A   B  29      13.034  41.389  26.530  0.00  0.00    +0.000 C 
ATOM    210  C4' A   B  29      12.894  40.277  27.545  0.00  0.00    +0.000 C 
ATOM    211  O4' A   B  29      12.669  39.013  26.865  0.00  0.00    +0.000 OA
ATOM    212  C3' A   B  29      14.114  40.005  28.410  0.00  0.00    +0.000 C 
ATOM    213  O3' A   B  29      14.250  40.936  29.476  0.00  0.00    +0.000 OA
ATOM    214  C2' A   B  29      13.844  38.582  28.882  0.00  0.00    +0.000 C 
ATOM    215  C1' A   B  29      13.252  37.960  27.616  0.00  0.00    +0.000 C 
ATOM    216  P   A   B  30      15.708  41.289  30.068  0.00  0.00    +0.000 P 
ATOM    217  OP2 A   B  30      16.679  41.358  28.944  0.00  0.00    +0.000 OA
ATOM    218  O5' A   B  30      16.068  40.007  30.949  0.00  0.00    +0.000 OA
ATOM    219  C5' A   B  30      15.305  39.678  32.104  0.00  0.00    +0.000 C 
ATOM    220  C4' A   B  30      15.602  38.274  32.578  0.00  0.00    +0.000 C 
ATOM    221  O4' A   B  30      15.361  37.329  31.502  0.00  0.00    +0.000 OA
ATOM    222  C3' A   B  30      17.041  37.998  32.983  0.00  0.00    +0.000 C 
ATOM    223  O3' A   B  30      17.338  38.466  34.292  0.00  0.00    +0.000 OA
ATOM    224  C2' A   B  30      17.112  36.480  32.857  0.00  0.00    +0.000 C 
ATOM    225  C1' A   B  30      16.273  36.248  31.600  0.00  0.00    +0.000 C 
ATOM    226  P   A   B  31      18.837  38.880  34.684  0.00  0.00    +0.000 P 
ATOM    227  OP2 A   B  31      19.456  39.590  33.530  0.00  0.00    +0.000 OA
ATOM    228  O5' A   B  31      19.582  37.481  34.855  0.00  0.00    +0.000 OA
ATOM    229  C5' A   B  31      19.195  36.566  35.876  0.00  0.00    +0.000 C 
ATOM    230  C4' A   B  31      19.837  35.214  35.668  0.00  0.00    +0.000 C 
ATOM    231  O4' A   B  31      19.465  34.688  34.369  0.00  0.00    +0.000 OA
ATOM    232  C3' A   B  31      21.355  35.202  35.645  0.00  0.00    +0.000 C 
ATOM    233  O3' A   B  31      21.914  35.209  36.955  0.00  0.00    +0.000 OA
ATOM    234  C2' A   B  31      21.652  33.922  34.875  0.00  0.00    +0.000 C 
ATOM    235  C1' A   B  31      20.541  33.943  33.823  0.00  0.00    +0.000 C 
ATOM    236  P   A   B  32      23.335  35.903  37.235  0.00  0.00    +0.000 P 
ATOM    237  OP2 A   B  32      23.459  37.111  36.372  0.00  0.00    +0.000 OA
ATOM    238  O5' A   B  32      24.380  34.822  36.715  0.00  0.00    +0.000 OA
ATOM    239  C5' A   B  32      24.484  33.546  37.330  0.00  0.00    +0.000 C 
ATOM    240  C4' A   B  32      25.332  32.614  36.501  0.00  0.00    +0.000 C 
ATOM    241  O4' A   B  32      24.712  32.413  35.203  0.00  0.00    +0.000 OA
ATOM    242  C3' A   B  32      26.723  33.120  36.166  0.00  0.00    +0.000 C 
ATOM    243  O3' A   B  32      27.643  32.911  37.235  0.00  0.00    +0.000 OA
ATOM    244  C2' A   B  32      27.063  32.321  34.915  0.00  0.00    +0.000 C 
ATOM    245  C1' A   B  32      25.710  32.294  34.205  0.00  0.00    +0.000 C 
ATOM    246  P   U   B  33      28.800  33.974  37.543  0.00  0.00    +0.000 P 
ATOM    247  OP2 U   B  33      28.233  35.337  37.388  0.00  0.00    +0.000 OA
ATOM    248  O5' U   B  33      29.837  33.736  36.358  0.00  0.00    +0.000 OA
ATOM    249  C5' U   B  33      30.518  32.498  36.215  0.00  0.00    +0.000 C 
ATOM    250  C4' U   B  33      31.222  32.407  34.882  0.00  0.00    +0.000 C 
ATOM    251  O4' U   B  33      30.247  32.434  33.806  0.00  0.00    +0.000 OA
ATOM    252  C3' U   B  33      32.156  33.552  34.553  0.00  0.00    +0.000 C 
ATOM    253  O3' U   B  33      33.414  33.439  35.204  0.00  0.00    +0.000 OA
ATOM    254  C2' U   B  33      32.242  33.459  33.036  0.00  0.00    +0.000 C 
ATOM    255  C1' U   B  33      30.798  33.095  32.682  0.00  0.00    +0.000 C 
ATOM    256  P   A   B  34      34.216  34.746  35.665  0.00  0.00    +0.000 P 
ATOM    257  OP2 A   B  34      33.249  35.709  36.241  0.00  0.00    +0.000 OA
ATOM    258  O5' A   B  34      34.742  35.344  34.288  0.00  0.00    +0.000 OA
ATOM    259  C5' A   B  34      35.677  34.626  33.495  0.00  0.00    +0.000 C 
ATOM    260  C4' A   B  34      35.853  35.264  32.140  0.00  0.00    +0.000 C 
ATOM    261  O4' A   B  34      34.604  35.220  31.404  0.00  0.00    +0.000 OA
ATOM    262  C3' A   B  34      36.217  36.735  32.143  0.00  0.00    +0.000 C 
ATOM    263  O3' A   B  34      37.595  36.958  32.409  0.00  0.00    +0.000 OA
ATOM    264  C2' A   B  34      35.790  37.166  30.745  0.00  0.00    +0.000 C 
ATOM    265  C1' A   B  34      34.511  36.352  30.558  0.00  0.00    +0.000 C 
ATOM    266  P   A   B  35      38.062  38.271  33.185  0.00  0.00    +0.000 P 
ATOM    267  OP1 A   B  35      39.541  38.337  33.116  0.00  0.00    +0.000 OA
ATOM    268  O5' A   B  35      37.450  39.438  32.291  0.00  0.00    +0.000 OA
ATOM    269  C5' A   B  35      38.285  40.405  31.686  0.00  0.00    +0.000 C 
ATOM    270  C4' A   B  35      37.757  40.847  30.349  0.00  0.00    +0.000 C 
ATOM    271  O4' A   B  35      36.483  40.211  30.064  0.00  0.00    +0.000 OA
ATOM    272  C3' A   B  35      37.451  42.329  30.221  0.00  0.00    +0.000 C 
ATOM    273  O3' A   B  35      38.624  43.102  30.003  0.00  0.00    +0.000 OA
ATOM    274  C2' A   B  35      36.474  42.356  29.055  0.00  0.00    +0.000 C 
ATOM    275  C1' A   B  35      35.653  41.101  29.339  0.00  0.00    +0.000 C 
ATOM    276  P   U   B  36      38.877  44.426  30.860  0.00  0.00    +0.000 P 
ATOM    277  OP1 U   B  36      40.195  44.975  30.458  0.00  0.00    +0.000 OA
ATOM    278  O5' U   B  36      37.740  45.404  30.331  0.00  0.00    +0.000 OA
ATOM    279  C5' U   B  36      37.683  45.788  28.959  0.00  0.00    +0.000 C 
ATOM    280  C4' U   B  36      36.431  46.573  28.663  0.00  0.00    +0.000 C 
ATOM    281  O4' U   B  36      35.264  45.724  28.815  0.00  0.00    +0.000 OA
ATOM    282  C3' U   B  36      36.154  47.735  29.589  0.00  0.00    +0.000 C 
ATOM    283  O3' U   B  36      36.932  48.881  29.268  0.00  0.00    +0.000 OA
ATOM    284  C2' U   B  36      34.655  47.940  29.407  0.00  0.00    +0.000 C 
ATOM    285  C1' U   B  36      34.175  46.491  29.299  0.00  0.00    +0.000 C 
ATOM    286  P   A   B  37      37.445  49.858  30.438  0.00  0.00    +0.000 P 
ATOM    287  OP1 A   B  37      38.619  50.606  29.922  0.00  0.00    +0.000 OA
ATOM    288  O5' A   B  37      36.239  50.875  30.601  0.00  0.00    +0.000 OA
ATOM    289  C5' A   B  37      35.916  51.789  29.558  0.00  0.00    +0.000 C 
ATOM    290  C4' A   B  37      34.671  52.570  29.891  0.00  0.00    +0.000 C 
ATOM    291  O4' A   B  37      33.520  51.691  29.889  0.00  0.00    +0.000 OA
ATOM    292  C3' A   B  37      34.640  53.205  31.269  0.00  0.00    +0.000 C 
ATOM    293  O3' A   B  37      35.382  54.418  31.333  0.00  0.00    +0.000 OA
ATOM    294  C2' A   B  37      33.148  53.398  31.495  0.00  0.00    +0.000 C 
ATOM    295  C1' A   B  37      32.591  52.125  30.866  0.00  0.00    +0.000 C 
ATOM    296  P   U   B  38      36.148  54.835  32.699  0.00  0.00    +0.000 P 
ATOM    297  OP1 U   B  38      36.976  56.029  32.398  0.00  0.00    +0.000 OA
ATOM    298  O5' U   B  38      34.954  55.279  33.652  0.00  0.00    +0.000 OA
ATOM    299  C5' U   B  38      34.124  56.386  33.311  0.00  0.00    +0.000 C 
ATOM    300  C4' U   B  38      32.898  56.437  34.195  0.00  0.00    +0.000 C 
ATOM    301  O4' U   B  38      32.154  55.197  34.074  0.00  0.00    +0.000 OA
ATOM    302  C3' U   B  38      33.159  56.557  35.681  0.00  0.00    +0.000 C 
ATOM    303  O3' U   B  38      33.451  57.897  36.072  0.00  0.00    +0.000 OA
ATOM    304  C2' U   B  38      31.862  56.032  36.280  0.00  0.00    +0.000 C 
ATOM    305  C1' U   B  38      31.514  54.904  35.303  0.00  0.00    +0.000 C 
ATOM    306  P   U   B  39      34.864  58.318  36.758  0.00  0.00    +0.000 P 
ATOM    307  OP2 U   B  39      35.962  57.748  35.942  0.00  0.00    +0.000 OA
ATOM    308  O5' U   B  39      34.848  57.548  38.154  0.00  0.00    +0.000 OA
ATOM    309  C5' U   B  39      33.665  57.466  38.930  0.00  0.00    +0.000 C 
ATOM    310  C4' U   B  39      33.576  56.143  39.652  0.00  0.00    +0.000 C 
ATOM    311  O4' U   B  39      33.941  55.073  38.745  0.00  0.00    +0.000 OA
ATOM    312  C3' U   B  39      34.523  55.969  40.817  0.00  0.00    +0.000 C 
ATOM    313  O3' U   B  39      34.012  56.582  42.000  0.00  0.00    +0.000 OA
ATOM    314  C2' U   B  39      34.654  54.455  40.924  0.00  0.00    +0.000 C 
ATOM    315  C1' U   B  39      34.605  54.042  39.451  0.00  0.00    +0.000 C 
ATOM    316  P   C   B  40      34.866  56.743  43.272  0.00  0.00    +0.000 P 
ATOM    317  OP2 C   B  40      36.273  56.442  42.950  0.00  0.00    +0.000 OA
ATOM    318  O5' C   B  40      34.281  55.557  44.141  0.00  0.00    +0.000 OA
ATOM    319  C5' C   B  40      35.115  54.728  44.923  0.00  0.00    +0.000 C 
ATOM    320  C4' C   B  40      34.487  53.367  45.068  0.00  0.00    +0.000 C 
ATOM    321  O4' C   B  40      34.567  52.685  43.795  0.00  0.00    +0.000 OA
ATOM    322  C3' C   B  40      35.169  52.454  46.083  0.00  0.00    +0.000 C 
ATOM    323  O3' C   B  40      34.195  51.669  46.749  0.00  0.00    +0.000 OA
ATOM    324  C2' C   B  40      36.038  51.561  45.215  0.00  0.00    +0.000 C 
ATOM    325  C1' C   B  40      35.197  51.426  43.952  0.00  0.00    +0.000 C 
ATOM    326  P   U   B  41      33.044  52.286  47.584  0.00  0.00    +0.000 P 
ATOM    327  OP1 U   B  41      32.441  53.378  46.763  0.00  0.00    +0.000 OA
ATOM    328  O5' U   B  41      32.031  51.065  47.614  0.00  0.00    +0.000 OA
ATOM    329  C5' U   B  41      31.731  50.405  48.828  0.00  0.00    +0.000 C 
ATOM    330  C4' U   B  41      30.249  50.457  49.094  0.00  0.00    +0.000 C 
ATOM    331  O4' U   B  41      29.849  51.834  49.296  0.00  0.00    +0.000 OA
ATOM    332  C3' U   B  41      29.346  49.969  47.973  0.00  0.00    +0.000 C 
ATOM    333  O3' U   B  41      29.244  48.551  47.922  0.00  0.00    +0.000 OA
ATOM    334  C2' U   B  41      28.036  50.651  48.307  0.00  0.00    +0.000 C 
ATOM    335  C1' U   B  41      28.530  52.013  48.815  0.00  0.00    +0.000 C 
ATOM    336  P   U   B  42      28.986  47.803  46.509  0.00  0.00    +0.000 P 
ATOM    337  OP2 U   B  42      29.787  48.483  45.465  0.00  0.00    +0.000 OA
ATOM    338  O5' U   B  42      27.447  48.087  46.215  0.00  0.00    +0.000 OA
ATOM    339  C5' U   B  42      26.421  47.525  47.031  0.00  0.00    +0.000 C 
ATOM    340  C4' U   B  42      25.111  48.261  46.877  0.00  0.00    +0.000 C 
ATOM    341  O4' U   B  42      25.320  49.683  47.087  0.00  0.00    +0.000 OA
ATOM    342  C3' U   B  42      24.458  48.200  45.508  0.00  0.00    +0.000 C 
ATOM    343  O3' U   B  42      23.743  46.989  45.284  0.00  0.00    +0.000 OA
ATOM    344  C2' U   B  42      23.549  49.417  45.532  0.00  0.00    +0.000 C 
ATOM    345  C1' U   B  42      24.426  50.423  46.284  0.00  0.00    +0.000 C 
ATOM    346  P   A   B  43      23.835  46.222  43.853  0.00  0.00    +0.000 P 
ATOM    347  OP2 A   B  43      25.255  45.859  43.615  0.00  0.00    +0.000 OA
ATOM    348  O5' A   B  43      23.424  47.329  42.781  0.00  0.00    +0.000 OA
ATOM    349  C5' A   B  43      22.102  47.870  42.747  0.00  0.00    +0.000 C 
ATOM    350  C4' A   B  43      22.069  49.172  41.985  0.00  0.00    +0.000 C 
ATOM    351  O4' A   B  43      23.096  50.057  42.496  0.00  0.00    +0.000 OA
ATOM    352  C3' A   B  43      22.374  49.077  40.497  0.00  0.00    +0.000 C 
ATOM    353  O3' A   B  43      21.229  48.710  39.737  0.00  0.00    +0.000 OA
ATOM    354  C2' A   B  43      22.874  50.476  40.173  0.00  0.00    +0.000 C 
ATOM    355  C1' A   B  43      23.659  50.813  41.439  0.00  0.00    +0.000 C 
ATOM    356  P   C   B  44      21.381  47.715  38.459  0.00  0.00    +0.000 P 
ATOM    357  OP1 C   B  44      20.015  47.398  37.976  0.00  0.00    +0.000 OA
ATOM    358  O5' C   B  44      22.097  48.629  37.372  0.00  0.00    +0.000 OA
ATOM    359  C5' C   B  44      21.501  49.837  36.907  0.00  0.00    +0.000 C 
ATOM    360  C4' C   B  44      22.518  50.711  36.211  0.00  0.00    +0.000 C 
ATOM    361  O4' C   B  44      23.605  51.010  37.123  0.00  0.00    +0.000 OA
ATOM    362  C3' C   B  44      23.207  50.094  35.010  0.00  0.00    +0.000 C 
ATOM    363  O3' C   B  44      22.412  50.204  33.833  0.00  0.00    +0.000 OA
ATOM    364  C2' C   B  44      24.503  50.889  34.925  0.00  0.00    +0.000 C 
ATOM    365  C1' C   B  44      24.825  51.090  36.412  0.00  0.00    +0.000 C 
ATOM    366  P   U   B  45      22.613  49.188  32.606  0.00  0.00    +0.000 P 
ATOM    367  OP1 U   B  45      21.381  49.246  31.788  0.00  0.00    +0.000 OA
ATOM    368  O5' U   B  45      23.797  49.857  31.769  0.00  0.00    +0.000 OA
ATOM    369  C5' U   B  45      23.688  51.190  31.271  0.00  0.00    +0.000 C 
ATOM    370  C4' U   B  45      24.854  51.526  30.381  0.00  0.00    +0.000 C 
ATOM    371  O4' U   B  45      26.081  51.523  31.156  0.00  0.00    +0.000 OA
ATOM    372  C3' U   B  45      25.127  50.541  29.262  0.00  0.00    +0.000 C 
ATOM    373  O3' U   B  45      24.269  50.743  28.145  0.00  0.00    +0.000 OA
ATOM    374  C2' U   B  45      26.592  50.804  28.946  0.00  0.00    +0.000 C 
ATOM    375  C1' U   B  45      27.153  51.066  30.349  0.00  0.00    +0.000 C 
ATOM    376  P   U   B  46      23.703  49.514  27.326  0.00  0.00    +0.000 P 
ATOM    377  OP1 U   B  46      22.758  50.029  26.303  0.00  0.00    +0.000 OA
ATOM    378  O5' U   B  46      24.993  48.967  26.576  0.00  0.00    +0.000 OA
ATOM    379  C5' U   B  46      25.684  49.771  25.623  0.00  0.00    +0.000 C 
ATOM    380  C4' U   B  46      27.027  49.178  25.275  0.00  0.00    +0.000 C 
ATOM    381  O4' U   B  46      27.869  49.137  26.460  0.00  0.00    +0.000 OA
ATOM    382  C3' U   B  46      27.016  47.736  24.800  0.00  0.00    +0.000 C 
ATOM    383  O3' U   B  46      26.629  47.613  23.437  0.00  0.00    +0.000 OA
ATOM    384  C2' U   B  46      28.454  47.306  25.063  0.00  0.00    +0.000 C 
ATOM    385  C1' U   B  46      28.724  48.006  26.398  0.00  0.00    +0.000 C 
ATOM    386  P   U   B  47      25.910  46.292  22.932  0.00  0.00    +0.000 P 
ATOM    387  OP1 U   B  47      25.468  46.532  21.535  0.00  0.00    +0.000 OA
ATOM    388  O5' U   B  47      27.092  45.222  22.905  0.00  0.00    +0.000 OA
ATOM    389  C5' U   B  47      28.216  45.403  22.047  0.00  0.00    +0.000 C 
ATOM    390  C4' U   B  47      29.321  44.415  22.350  0.00  0.00    +0.000 C 
ATOM    391  O4' U   B  47      29.781  44.580  23.719  0.00  0.00    +0.000 OA
ATOM    392  C3' U   B  47      28.953  42.947  22.279  0.00  0.00    +0.000 C 
ATOM    393  O3' U   B  47      28.881  42.468  20.941  0.00  0.00    +0.000 OA
ATOM    394  C2' U   B  47      30.080  42.308  23.086  0.00  0.00    +0.000 C 
ATOM    395  C1' U   B  47      30.266  43.338  24.206  0.00  0.00    +0.000 C 
ATOM    396  P   A   B  48      27.975  41.199  20.600  0.00  0.00    +0.000 P 
ATOM    397  OP1 A   B  48      27.862  41.116  19.122  0.00  0.00    +0.000 OA
ATOM    398  O5' A   B  48      28.866  39.974  21.101  0.00  0.00    +0.000 OA
ATOM    399  C5' A   B  48      30.133  39.702  20.499  0.00  0.00    +0.000 C 
ATOM    400  C4' A   B  48      30.904  38.676  21.299  0.00  0.00    +0.000 C 
ATOM    401  O4' A   B  48      31.155  39.180  22.637  0.00  0.00    +0.000 OA
ATOM    402  C3' A   B  48      30.197  37.353  21.535  0.00  0.00    +0.000 C 
ATOM    403  O3' A   B  48      30.284  36.485  20.410  0.00  0.00    +0.000 OA
ATOM    404  C2' A   B  48      30.930  36.821  22.763  0.00  0.00    +0.000 C 
ATOM    405  C1' A   B  48      31.150  38.106  23.561  0.00  0.00    +0.000 C 
ATOM    406  P   U   B  49      29.110  35.454  20.107  0.00  0.00    +0.000 P 
ATOM    407  OP1 U   B  49      29.356  34.888  18.756  0.00  0.00    +0.000 OA
ATOM    408  O5' U   B  49      29.343  34.303  21.187  0.00  0.00    +0.000 OA
ATOM    409  C5' U   B  49      30.530  33.513  21.174  0.00  0.00    +0.000 C 
ATOM    410  C4' U   B  49      30.671  32.715  22.450  0.00  0.00    +0.000 C 
ATOM    411  O4' U   B  49      30.762  33.616  23.587  0.00  0.00    +0.000 OA
ATOM    412  C3' U   B  49      29.504  31.810  22.801  0.00  0.00    +0.000 C 
ATOM    413  O3' U   B  49      29.519  30.588  22.074  0.00  0.00    +0.000 OA
ATOM    414  C2' U   B  49      29.695  31.621  24.301  0.00  0.00    +0.000 C 
ATOM    415  C1' U   B  49      30.150  33.021  24.719  0.00  0.00    +0.000 C 
ATOM    416  P   U   B  50      28.140  29.874  21.674  0.00  0.00    +0.000 P 
ATOM    417  OP1 U   B  50      28.471  28.730  20.788  0.00  0.00    +0.000 OA
ATOM    418  O5' U   B  50      27.605  29.295  23.063  0.00  0.00    +0.000 OA
ATOM    419  C5' U   B  50      28.308  28.263  23.746  0.00  0.00    +0.000 C 
ATOM    420  C4' U   B  50      27.830  28.118  25.174  0.00  0.00    +0.000 C 
ATOM    421  O4' U   B  50      27.993  29.381  25.877  0.00  0.00    +0.000 OA
ATOM    422  C3' U   B  50      26.362  27.791  25.361  0.00  0.00    +0.000 C 
ATOM    423  O3' U   B  50      26.069  26.416  25.154  0.00  0.00    +0.000 OA
ATOM    424  C2' U   B  50      26.123  28.245  26.793  0.00  0.00    +0.000 C 
ATOM    425  C1' U   B  50      26.964  29.522  26.841  0.00  0.00    +0.000 C 
ATOM    426  P   U   B  51      24.617  25.965  24.659  0.00  0.00    +0.000 P 
ATOM    427  OP2 U   B  51      24.162  26.904  23.599  0.00  0.00    +0.000 OA
ATOM    428  O5' U   B  51      23.702  26.196  25.946  0.00  0.00    +0.000 OA
ATOM    429  C5' U   B  51      23.900  25.441  27.136  0.00  0.00    +0.000 C 
ATOM    430  C4' U   B  51      23.104  26.007  28.290  0.00  0.00    +0.000 C 
ATOM    431  O4' U   B  51      23.490  27.388  28.529  0.00  0.00    +0.000 OA
ATOM    432  C3' U   B  51      21.602  26.082  28.092  0.00  0.00    +0.000 C 
ATOM    433  O3' U   B  51      20.958  24.830  28.298  0.00  0.00    +0.000 OA
ATOM    434  C2' U   B  51      21.204  27.136  29.115  0.00  0.00    +0.000 C 
ATOM    435  C1' U   B  51      22.373  28.118  28.997  0.00  0.00    +0.000 C 
ATOM    436  P   U   B  52      19.597  24.488  27.540  0.00  0.00    +0.000 P 
ATOM    437  OP2 U   B  52      19.688  24.992  26.144  0.00  0.00    +0.000 OA
ATOM    438  O5' U   B  52      18.519  25.370  28.314  0.00  0.00    +0.000 OA
ATOM    439  C5' U   B  52      18.223  25.135  29.687  0.00  0.00    +0.000 C 
ATOM    440  C4' U   B  52      17.372  26.240  30.268  0.00  0.00    +0.000 C 
ATOM    441  O4' U   B  52      18.078  27.506  30.181  0.00  0.00    +0.000 OA
ATOM    442  C3' U   B  52      16.056  26.511  29.562  0.00  0.00    +0.000 C 
ATOM    443  O3' U   B  52      15.042  25.574  29.915  0.00  0.00    +0.000 OA
ATOM    444  C2' U   B  52      15.749  27.931  30.011  0.00  0.00    +0.000 C 
ATOM    445  C1' U   B  52      17.149  28.556  29.995  0.00  0.00    +0.000 C 
ATOM    446  P   A   B  53      13.881  25.211  28.879  0.00  0.00    +0.000 P 
ATOM    447  OP2 A   B  53      14.467  25.112  27.518  0.00  0.00    +0.000 OA
ATOM    448  O5' A   B  53      12.948  26.503  28.920  0.00  0.00    +0.000 OA
ATOM    449  C5' A   B  53      12.242  26.855  30.109  0.00  0.00    +0.000 C 
ATOM    450  C4' A   B  53      11.610  28.221  29.980  0.00  0.00    +0.000 C 
ATOM    451  O4' A   B  53      12.639  29.226  29.788  0.00  0.00    +0.000 OA
ATOM    452  C3' A   B  53      10.684  28.416  28.788  0.00  0.00    +0.000 C 
ATOM    453  O3' A   B  53       9.388  27.866  29.005  0.00  0.00    +0.000 OA
ATOM    454  C2' A   B  53      10.683  29.931  28.644  0.00  0.00    +0.000 C 
ATOM    455  C1' A   B  53      12.143  30.262  28.960  0.00  0.00    +0.000 C 
ATOM    456  P   A   B  54       8.524  27.322  27.775  0.00  0.00    +0.000 P 
ATOM    457  OP2 A   B  54       9.427  26.623  26.820  0.00  0.00    +0.000 OA
ATOM    458  O5' A   B  54       8.008  28.659  27.073  0.00  0.00    +0.000 OA
ATOM    459  C5' A   B  54       7.125  29.544  27.758  0.00  0.00    +0.000 C 
ATOM    460  C4' A   B  54       7.003  30.860  27.029  0.00  0.00    +0.000 C 
ATOM    461  O4' A   B  54       8.307  31.489  26.929  0.00  0.00    +0.000 OA
ATOM    462  C3' A   B  54       6.528  30.783  25.586  0.00  0.00    +0.000 C 
ATOM    463  O3' A   B  54       5.116  30.628  25.480  0.00  0.00    +0.000 OA
ATOM    464  C2' A   B  54       7.031  32.104  25.026  0.00  0.00    +0.000 C 
ATOM    465  C1' A   B  54       8.392  32.217  25.717  0.00  0.00    +0.000 C 
ATOM    466  P   A   B  55       4.480  29.847  24.240  0.00  0.00    +0.000 P 
ATOM    467  OP2 A   B  55       5.311  28.647  23.945  0.00  0.00    +0.000 OA
ATOM    468  O5' A   B  55       4.663  30.875  23.032  0.00  0.00    +0.000 OA
ATOM    469  C5' A   B  55       3.989  32.131  23.042  0.00  0.00    +0.000 C 
ATOM    470  C4' A   B  55       4.502  33.031  21.943  0.00  0.00    +0.000 C 
ATOM    471  O4' A   B  55       5.926  33.251  22.113  0.00  0.00    +0.000 OA
ATOM    472  C3' A   B  55       4.386  32.490  20.528  0.00  0.00    +0.000 C 
ATOM    473  O3' A   B  55       3.075  32.638  19.993  0.00  0.00    +0.000 OA
ATOM    474  C2' A   B  55       5.432  33.315  19.795  0.00  0.00    +0.000 C 
ATOM    475  C1' A   B  55       6.541  33.391  20.845  0.00  0.00    +0.000 C 
ATOM    476  P   A   B  56       2.518  31.605  18.914  0.00  0.00    +0.000 P 
ATOM    477  OP1 A   B  56       1.082  31.905  18.708  0.00  0.00    +0.000 OA
ATOM    478  O5' A   B  56       3.307  32.002  17.585  0.00  0.00    +0.000 OA
ATOM    479  C5' A   B  56       3.118  33.277  16.981  0.00  0.00    +0.000 C 
ATOM    480  C4' A   B  56       4.112  33.498  15.864  0.00  0.00    +0.000 C 
ATOM    481  O4' A   B  56       5.460  33.447  16.395  0.00  0.00    +0.000 OA
ATOM    482  C3' A   B  56       4.112  32.453  14.764  0.00  0.00    +0.000 C 
ATOM    483  O3' A   B  56       3.071  32.672  13.815  0.00  0.00    +0.000 OA
ATOM    484  C2' A   B  56       5.504  32.618  14.172  0.00  0.00    +0.000 C 
ATOM    485  C1' A   B  56       6.333  32.899  15.426  0.00  0.00    +0.000 C 
ATOM    486  P   A   B  57       2.391  31.454  13.068  0.00  0.00    +0.000 P 
ATOM    487  OP1 A   B  57       1.246  31.981  12.288  0.00  0.00    +0.000 OA
ATOM    488  O5' A   B  57       3.520  30.984  12.041  0.00  0.00    +0.000 OA
ATOM    489  C5' A   B  57       3.930  31.829  10.977  0.00  0.00    +0.000 C 
ATOM    490  C4' A   B  57       5.055  31.194  10.191  0.00  0.00    +0.000 C 
ATOM    491  O4' A   B  57       6.222  31.058  11.047  0.00  0.00    +0.000 OA
ATOM    492  C3' A   B  57       4.794  29.789   9.689  0.00  0.00    +0.000 C 
ATOM    493  O3' A   B  57       4.049  29.780   8.470  0.00  0.00    +0.000 OA
ATOM    494  C2' A   B  57       6.208  29.236   9.513  0.00  0.00    +0.000 C 
ATOM    495  C1' A   B  57       6.953  29.907  10.674  0.00  0.00    +0.000 C 
ATOM    496  P   C   B  58       2.485  29.627   8.521  0.00  0.00    +0.000 P 
ATOM    497  OP1 C   B  58       1.892  30.987   8.333  0.00  0.00    +0.000 OA
ATOM    498  O5' C   B  58       2.107  28.756   7.236  0.00  0.00    +0.000 OA
ATOM    499  C5' C   B  58       2.710  27.484   7.007  0.00  0.00    +0.000 C 
ATOM    500  C4' C   B  58       3.011  27.295   5.533  0.00  0.00    +0.000 C 
ATOM    501  O4' C   B  58       1.763  27.154   4.799  0.00  0.00    +0.000 OA
ATOM    502  C3' C   B  58       3.768  28.449   4.879  0.00  0.00    +0.000 C 
ATOM    503  O3' C   B  58       4.752  27.942   3.974  0.00  0.00    +0.000 OA
ATOM    504  C2' C   B  58       2.687  29.211   4.125  0.00  0.00    +0.000 C 
ATOM    505  C1' C   B  58       1.703  28.107   3.748  0.00  0.00    +0.000 C 
ATOM    506  P   A   B  59       6.279  28.315   4.286  0.00  0.00    +0.000 P 
ATOM    507  OP2 A   B  59       7.089  27.669   3.233  0.00  0.00    +0.000 OA
ATOM    508  O5' A   B  59       6.603  27.602   5.664  0.00  0.00    +0.000 OA
ATOM    509  C5' A   B  59       6.533  26.191   5.817  0.00  0.00    +0.000 C 
ATOM    510  C4' A   B  59       7.914  25.599   6.020  0.00  0.00    +0.000 C 
ATOM    511  O4' A   B  59       8.535  26.184   7.189  0.00  0.00    +0.000 OA
ATOM    512  C3' A   B  59       7.934  24.098   6.289  0.00  0.00    +0.000 C 
ATOM    513  O3' A   B  59       7.892  23.354   5.071  0.00  0.00    +0.000 OA
ATOM    514  C2' A   B  59       9.244  23.925   7.050  0.00  0.00    +0.000 C 
ATOM    515  C1' A   B  59       9.280  25.202   7.889  0.00  0.00    +0.000 C 
ATOM    516  P   G   B  60       7.035  22.042   4.964  0.00  0.00    +0.000 P 
ATOM    517  OP1 G   B  60       6.961  21.673   3.530  0.00  0.00    +0.000 OA
ATOM    518  O5' G   B  60       7.935  20.963   5.718  0.00  0.00    +0.000 OA
ATOM    519  C5' G   B  60       9.238  20.638   5.244  0.00  0.00    +0.000 C 
ATOM    520  C4' G   B  60       9.994  19.815   6.267  0.00  0.00    +0.000 C 
ATOM    521  O4' G   B  60      10.090  20.563   7.504  0.00  0.00    +0.000 OA
ATOM    522  C3' G   B  60       9.343  18.509   6.667  0.00  0.00    +0.000 C 
ATOM    523  O3' G   B  60       9.679  17.473   5.734  0.00  0.00    +0.000 OA
ATOM    524  C2' G   B  60       9.918  18.252   8.057  0.00  0.00    +0.000 C 
ATOM    525  C1' G   B  60      10.103  19.675   8.601  0.00  0.00    +0.000 C 
ATOM    526  P   A   B  61       8.861  16.144   5.663  0.00  0.00    +0.000 P 
ATOM    527  OP2 A   B  61       9.547  15.237   4.702  0.00  0.00    +0.000 OA
ATOM    528  O5' A   B  61       7.497  16.615   5.007  0.00  0.00    +0.000 OA
ATOM    529  C5' A   B  61       6.299  15.882   5.179  0.00  0.00    +0.000 C 
ATOM    530  C4' A   B  61       5.457  15.925   3.927  0.00  0.00    +0.000 C 
ATOM    531  O4' A   B  61       5.503  17.254   3.353  0.00  0.00    +0.000 OA
ATOM    532  C3' A   B  61       5.922  15.022   2.792  0.00  0.00    +0.000 C 
ATOM    533  O3' A   B  61       5.528  13.668   2.960  0.00  0.00    +0.000 OA
ATOM    534  C2' A   B  61       5.283  15.695   1.584  0.00  0.00    +0.000 C 
ATOM    535  C1' A   B  61       5.483  17.165   1.935  0.00  0.00    +0.000 C 
ATOM    536  P   C   B  62       6.413  12.482   2.359  0.00  0.00    +0.000 P 
ATOM    537  OP2 C   B  62       7.848  12.800   2.556  0.00  0.00    +0.000 OA
ATOM    538  O5' C   B  62       6.102  12.572   0.800  0.00  0.00    +0.000 OA
ATOM    539  C5' C   B  62       4.777  12.443   0.299  0.00  0.00    +0.000 C 
ATOM    540  C4' C   B  62       4.683  12.945  -1.120  0.00  0.00    +0.000 C 
ATOM    541  O4' C   B  62       5.165  14.312  -1.190  0.00  0.00    +0.000 OA
ATOM    542  C3' C   B  62       5.525  12.202  -2.139  0.00  0.00    +0.000 C 
ATOM    543  O3' C   B  62       4.898  11.005  -2.584  0.00  0.00    +0.000 OA
ATOM    544  C2' C   B  62       5.677  13.240  -3.248  0.00  0.00    +0.000 C 
ATOM    545  C1' C   B  62       5.803  14.533  -2.437  0.00  0.00    +0.000 C 
ATOM    546  P   U   B  63       5.745   9.668  -2.772  0.00  0.00    +0.000 P 
ATOM    547  OP1 U   B  63       4.818   8.590  -3.191  0.00  0.00    +0.000 OA
ATOM    548  O5' U   B  63       6.683  10.024  -4.010  0.00  0.00    +0.000 OA
ATOM    549  C5' U   B  63       6.138  10.332  -5.283  0.00  0.00    +0.000 C 
ATOM    550  C4' U   B  63       7.192  10.914  -6.191  0.00  0.00    +0.000 C 
ATOM    551  O4' U   B  63       7.712  12.138  -5.613  0.00  0.00    +0.000 OA
ATOM    552  C3' U   B  63       8.412  10.043  -6.409  0.00  0.00    +0.000 C 
ATOM    553  C2' U   B  63       9.492  11.064  -6.771  0.00  0.00    +0.000 C 
ATOM    554  C1' U   B  63       9.088  12.268  -5.908  0.00  0.00    +0.000 C 
ATOM    555  N1  U   B  63       9.843  12.354  -4.638  0.00  0.00    +0.000 N 
ATOM    556  C2  U   B  63      11.087  12.970  -4.666  0.00  0.00    +0.000 A 
ATOM    557  O2  U   B  63      11.579  13.425  -5.683  0.00  0.00    +0.000 OA
ATOM    558  N3  U   B  63      11.733  13.034  -3.455  0.00  0.00    +0.000 NA
ATOM    559  C4  U   B  63      11.273  12.554  -2.244  0.00  0.00    +0.000 A 
ATOM    560  O4  U   B  63      11.969  12.688  -1.234  0.00  0.00    +0.000 OA
ATOM    561  C5  U   B  63       9.985  11.933  -2.298  0.00  0.00    +0.000 A 
ATOM    562  C6  U   B  63       9.330  11.857  -3.463  0.00  0.00    +0.000 A 
ATOM    563  H   A   B   9      13.784  14.464  -1.858  0.00  0.00    +0.000 HD
ENDROOT
BRANCH 525 564
ATOM    564  N9  G   B  60       9.068  20.090   9.563  0.00  0.00    +0.000 N 
ATOM    565  C8  G   B  60       7.987  20.902   9.337  0.00  0.00    +0.000 A 
ATOM    566  N7  G   B  60       7.265  21.104  10.410  0.00  0.00    +0.000 NA
ATOM    567  C5  G   B  60       7.914  20.382  11.404  0.00  0.00    +0.000 A 
ATOM    568  C6  G   B  60       7.604  20.222  12.780  0.00  0.00    +0.000 A 
ATOM    569  O6  G   B  60       6.656  20.707  13.423  0.00  0.00    +0.000 OA
ATOM    570  N1  G   B  60       8.525  19.404  13.422  0.00  0.00    +0.000 NA
ATOM    571  C2  G   B  60       9.610  18.817  12.821  0.00  0.00    +0.000 A 
ATOM    572  N2  G   B  60      10.392  18.056  13.607  0.00  0.00    +0.000 N 
ATOM    573  N3  G   B  60       9.913  18.961  11.542  0.00  0.00    +0.000 N 
ATOM    574  C4  G   B  60       9.026  19.754  10.898  0.00  0.00    +0.000 A 
ATOM    575  H   G   B  60      11.184  17.610  13.229  0.00  0.00    +0.000 HD
ATOM    576  H   G   B  60      10.172  17.945  14.560  0.00  0.00    +0.000 HD
ATOM    577  H   G   B  60      10.692  18.541  11.110  0.00  0.00    +0.000 HD
ENDBRANCH 525 564
BRANCH 105 578
ATOM    578  N9  G   B  18      -7.043  19.330  14.197  0.00  0.00    +0.000 N 
ATOM    579  C8  G   B  18      -6.571  19.492  12.915  0.00  0.00    +0.000 A 
ATOM    580  N7  G   B  18      -5.625  18.643  12.613  0.00  0.00    +0.000 NA
ATOM    581  C5  G   B  18      -5.461  17.876  13.755  0.00  0.00    +0.000 A 
ATOM    582  C6  G   B  18      -4.584  16.797  14.021  0.00  0.00    +0.000 A 
ATOM    583  O6  G   B  18      -3.741  16.281  13.275  0.00  0.00    +0.000 OA
ATOM    584  N1  G   B  18      -4.747  16.303  15.312  0.00  0.00    +0.000 NA
ATOM    585  C2  G   B  18      -5.646  16.791  16.231  0.00  0.00    +0.000 A 
ATOM    586  N2  G   B  18      -5.662  16.189  17.434  0.00  0.00    +0.000 N 
ATOM    587  N3  G   B  18      -6.474  17.793  15.997  0.00  0.00    +0.000 N 
ATOM    588  C4  G   B  18      -6.330  18.285  14.742  0.00  0.00    +0.000 A 
ATOM    589  H   G   B  18      -5.049  15.441  17.618  0.00  0.00    +0.000 HD
ATOM    590  H   G   B  18      -6.287  16.496  18.130  0.00  0.00    +0.000 HD
ATOM    591  H   G   B  18      -7.118  18.141  16.655  0.00  0.00    +0.000 HD
ENDBRANCH 105 578
BRANCH 275 592
ATOM    592  N9  A   B  35      34.457  41.388  30.149  0.00  0.00    +0.000 N 
ATOM    593  C8  A   B  35      34.170  40.952  31.419  0.00  0.00    +0.000 A 
ATOM    594  N7  A   B  35      33.015  41.384  31.874  0.00  0.00    +0.000 NA
ATOM    595  C5  A   B  35      32.513  42.156  30.833  0.00  0.00    +0.000 A 
ATOM    596  C6  A   B  35      31.327  42.891  30.688  0.00  0.00    +0.000 A 
ATOM    597  N6  A   B  35      30.386  42.977  31.637  0.00  0.00    +0.000 N 
ATOM    598  N1  A   B  35      31.131  43.551  29.528  0.00  0.00    +0.000 NA
ATOM    599  C2  A   B  35      32.070  43.471  28.575  0.00  0.00    +0.000 A 
ATOM    600  N3  A   B  35      33.223  42.809  28.594  0.00  0.00    +0.000 NA
ATOM    601  C4  A   B  35      33.386  42.166  29.764  0.00  0.00    +0.000 A 
ATOM    602  H   A   B  35      29.573  43.509  31.477  0.00  0.00    +0.000 HD
ATOM    603  H   A   B  35      30.507  42.508  32.494  0.00  0.00    +0.000 HD
ENDBRANCH 275 592
BRANCH 515 604
ATOM    604  N9  A   B  59       8.684  25.031   9.223  0.00  0.00    +0.000 N 
ATOM    605  C8  A   B  59       7.549  25.622   9.717  0.00  0.00    +0.000 A 
ATOM    606  N7  A   B  59       7.272  25.283  10.960  0.00  0.00    +0.000 NA
ATOM    607  C5  A   B  59       8.296  24.413  11.303  0.00  0.00    +0.000 A 
ATOM    608  C6  A   B  59       8.580  23.707  12.484  0.00  0.00    +0.000 A 
ATOM    609  N6  A   B  59       7.814  23.770  13.587  0.00  0.00    +0.000 N 
ATOM    610  N1  A   B  59       9.681  22.924  12.501  0.00  0.00    +0.000 NA
ATOM    611  C2  A   B  59      10.444  22.861  11.397  0.00  0.00    +0.000 A 
ATOM    612  N3  A   B  59      10.281  23.480  10.226  0.00  0.00    +0.000 NA
ATOM    613  C4  A   B  59       9.177  24.250  10.249  0.00  0.00    +0.000 A 
ATOM    614  H   A   B  59       7.008  24.335  13.595  0.00  0.00    +0.000 HD
ATOM    615  H   A   B  59       8.059  23.251  14.387  0.00  0.00    +0.000 HD
ENDBRANCH 515 604
BRANCH 495 616
ATOM    616  N9  A   B  57       7.089  29.034  11.853  0.00  0.00    +0.000 N 
ATOM    617  C8  A   B  57       6.195  28.833  12.873  0.00  0.00    +0.000 A 
ATOM    618  N7  A   B  57       6.616  27.985  13.786  0.00  0.00    +0.000 NA
ATOM    619  C5  A   B  57       7.874  27.604  13.332  0.00  0.00    +0.000 A 
ATOM    620  C6  A   B  57       8.845  26.727  13.848  0.00  0.00    +0.000 A 
ATOM    621  N6  A   B  57       8.687  26.036  14.988  0.00  0.00    +0.000 N 
ATOM    622  N1  A   B  57       9.991  26.574  13.150  0.00  0.00    +0.000 NA
ATOM    623  C2  A   B  57      10.151  27.258  12.011  0.00  0.00    +0.000 A 
ATOM    624  N3  A   B  57       9.311  28.115  11.424  0.00  0.00    +0.000 NA
ATOM    625  C4  A   B  57       8.179  28.243  12.145  0.00  0.00    +0.000 A 
ATOM    626  H   A   B  57       9.401  25.435  15.303  0.00  0.00    +0.000 HD
ATOM    627  H   A   B  57       7.857  26.130  15.510  0.00  0.00    +0.000 HD
ENDBRANCH 495 616
BRANCH 485 628
ATOM    628  N9  A   B  56       6.956  31.687  15.982  0.00  0.00    +0.000 N 
ATOM    629  C8  A   B  56       6.525  30.909  17.030  0.00  0.00    +0.000 A 
ATOM    630  N7  A   B  56       7.313  29.890  17.291  0.00  0.00    +0.000 NA
ATOM    631  C5  A   B  56       8.330  30.006  16.352  0.00  0.00    +0.000 A 
ATOM    632  C6  A   B  56       9.479  29.236  16.099  0.00  0.00    +0.000 A 
ATOM    633  N6  A   B  56       9.807  28.143  16.805  0.00  0.00    +0.000 N 
ATOM    634  N1  A   B  56      10.284  29.625  15.089  0.00  0.00    +0.000 NA
ATOM    635  C2  A   B  56       9.959  30.714  14.381  0.00  0.00    +0.000 A 
ATOM    636  N3  A   B  56       8.908  31.523  14.527  0.00  0.00    +0.000 NA
ATOM    637  C4  A   B  56       8.123  31.105  15.541  0.00  0.00    +0.000 A 
ATOM    638  H   A   B  56      10.625  27.641  16.584  0.00  0.00    +0.000 HD
ATOM    639  H   A   B  56       9.230  27.843  17.544  0.00  0.00    +0.000 HD
ENDBRANCH 485 628
BRANCH 265 640
ATOM    640  N9  A   B  34      33.305  37.118  30.917  0.00  0.00    +0.000 N 
ATOM    641  C8  A   B  34      32.608  37.110  32.098  0.00  0.00    +0.000 A 
ATOM    642  N7  A   B  34      31.569  37.915  32.098  0.00  0.00    +0.000 NA
ATOM    643  C5  A   B  34      31.590  38.491  30.833  0.00  0.00    +0.000 A 
ATOM    644  C6  A   B  34      30.756  39.430  30.204  0.00  0.00    +0.000 A 
ATOM    645  N6  A   B  34      29.687  39.988  30.793  0.00  0.00    +0.000 N 
ATOM    646  N1  A   B  34      31.055  39.791  28.940  0.00  0.00    +0.000 NA
ATOM    647  C2  A   B  34      32.121  39.241  28.348  0.00  0.00    +0.000 A 
ATOM    648  N3  A   B  34      32.979  38.345  28.835  0.00  0.00    +0.000 NA
ATOM    649  C4  A   B  34      32.653  38.009  30.097  0.00  0.00    +0.000 A 
ATOM    650  H   A   B  34      29.139  40.641  30.301  0.00  0.00    +0.000 HD
ATOM    651  H   A   B  34      29.451  39.744  31.717  0.00  0.00    +0.000 HD
ENDBRANCH 265 640
BRANCH 295 652
ATOM    652  N9  A   B  37      32.414  51.052  31.855  0.00  0.00    +0.000 N 
ATOM    653  C8  A   B  37      33.246  49.998  32.123  0.00  0.00    +0.000 A 
ATOM    654  N7  A   B  37      32.811  49.204  33.076  0.00  0.00    +0.000 NA
ATOM    655  C5  A   B  37      31.609  49.783  33.462  0.00  0.00    +0.000 A 
ATOM    656  C6  A   B  37      30.655  49.425  34.431  0.00  0.00    +0.000 A 
ATOM    657  N6  A   B  37      30.768  48.354  35.226  0.00  0.00    +0.000 N 
ATOM    658  N1  A   B  37      29.569  50.211  34.562  0.00  0.00    +0.000 NA
ATOM    659  C2  A   B  37      29.451  51.290  33.768  0.00  0.00    +0.000 A 
ATOM    660  N3  A   B  37      30.280  51.726  32.821  0.00  0.00    +0.000 NA
ATOM    661  C4  A   B  37      31.353  50.917  32.718  0.00  0.00    +0.000 A 
ATOM    662  H   A   B  37      31.553  47.764  35.149  0.00  0.00    +0.000 HD
ATOM    663  H   A   B  37      30.066  48.156  35.888  0.00  0.00    +0.000 HD
ENDBRANCH 295 652
BRANCH 405 664
ATOM    664  N9  A   B  48      30.088  38.343  24.552  0.00  0.00    +0.000 N 
ATOM    665  C8  A   B  48      28.997  39.172  24.454  0.00  0.00    +0.000 A 
ATOM    666  N7  A   B  48      28.232  39.165  25.522  0.00  0.00    +0.000 NA
ATOM    667  C5  A   B  48      28.862  38.270  26.379  0.00  0.00    +0.000 A 
ATOM    668  C6  A   B  48      28.555  37.822  27.674  0.00  0.00    +0.000 A 
ATOM    669  N6  A   B  48      27.483  38.231  28.366  0.00  0.00    +0.000 N 
ATOM    670  N1  A   B  48      29.389  36.928  28.245  0.00  0.00    +0.000 NA
ATOM    671  C2  A   B  48      30.461  36.516  27.553  0.00  0.00    +0.000 A 
ATOM    672  N3  A   B  48      30.856  36.869  26.330  0.00  0.00    +0.000 NA
ATOM    673  C4  A   B  48      30.005  37.757  25.793  0.00  0.00    +0.000 A 
ATOM    674  H   A   B  48      26.861  38.883  27.970  0.00  0.00    +0.000 HD
ATOM    675  H   A   B  48      27.318  37.880  29.271  0.00  0.00    +0.000 HD
ENDBRANCH 405 664
BRANCH 545 676
ATOM    676  N1  C   B  62       7.214  14.922  -2.194  0.00  0.00    +0.000 N 
ATOM    677  C2  C   B  62       7.939  15.516  -3.237  0.00  0.00    +0.000 A 
ATOM    678  O2  C   B  62       7.382  15.693  -4.330  0.00  0.00    +0.000 OA
ATOM    679  N3  C   B  62       9.229  15.883  -3.028  0.00  0.00    +0.000 NA
ATOM    680  C4  C   B  62       9.800  15.679  -1.838  0.00  0.00    +0.000 A 
ATOM    681  N4  C   B  62      11.076  16.059  -1.679  0.00  0.00    +0.000 N 
ATOM    682  C5  C   B  62       9.087  15.080  -0.759  0.00  0.00    +0.000 A 
ATOM    683  C6  C   B  62       7.812  14.723  -0.974  0.00  0.00    +0.000 A 
ATOM    684  H   C   B  62      11.564  16.472  -2.428  0.00  0.00    +0.000 HD
ATOM    685  H   C   B  62      11.525  15.925  -0.813  0.00  0.00    +0.000 HD
ENDBRANCH 545 676
BRANCH  95 686
ATOM    686  N1  C   B  17     -15.501  22.741  13.160  0.00  0.00    +0.000 N 
ATOM    687  C2  C   B  17     -16.455  23.671  13.605  0.00  0.00    +0.000 A 
ATOM    688  O2  C   B  17     -16.231  24.881  13.471  0.00  0.00    +0.000 OA
ATOM    689  N3  C   B  17     -17.606  23.219  14.161  0.00  0.00    +0.000 NA
ATOM    690  C4  C   B  17     -17.816  21.907  14.285  0.00  0.00    +0.000 A 
ATOM    691  N4  C   B  17     -18.962  21.514  14.840  0.00  0.00    +0.000 N 
ATOM    692  C5  C   B  17     -16.859  20.944  13.845  0.00  0.00    +0.000 A 
ATOM    693  C6  C   B  17     -15.726  21.403  13.293  0.00  0.00    +0.000 A 
ATOM    694  H   C   B  17     -19.153  20.554  14.948  0.00  0.00    +0.000 HD
ATOM    695  H   C   B  17     -19.618  22.183  15.142  0.00  0.00    +0.000 HD
ENDBRANCH  95 686
BRANCH  85 696
ATOM    696  N1  C   B  16     -18.335  19.226  10.800  0.00  0.00    +0.000 N 
ATOM    697  C2  C   B  16     -19.242  20.294  10.749  0.00  0.00    +0.000 A 
ATOM    698  O2  C   B  16     -19.357  20.942   9.697  0.00  0.00    +0.000 OA
ATOM    699  N3  C   B  16     -19.975  20.593  11.852  0.00  0.00    +0.000 NA
ATOM    700  C4  C   B  16     -19.827  19.872  12.968  0.00  0.00    +0.000 A 
ATOM    701  N4  C   B  16     -20.572  20.209  14.025  0.00  0.00    +0.000 N 
ATOM    702  C5  C   B  16     -18.908  18.787  13.046  0.00  0.00    +0.000 A 
ATOM    703  C6  C   B  16     -18.190  18.496  11.946  0.00  0.00    +0.000 A 
ATOM    704  H   C   B  16     -21.205  20.961  13.962  0.00  0.00    +0.000 HD
ATOM    705  H   C   B  16     -20.488  19.706  14.867  0.00  0.00    +0.000 HD
ENDBRANCH  85 696
BRANCH 325 706
ATOM    706  N1  C   B  40      35.977  51.130  42.736  0.00  0.00    +0.000 N 
ATOM    707  C2  C   B  40      35.471  50.187  41.833  0.00  0.00    +0.000 A 
ATOM    708  O2  C   B  40      34.391  49.635  42.069  0.00  0.00    +0.000 OA
ATOM    709  N3  C   B  40      36.188  49.900  40.707  0.00  0.00    +0.000 NA
ATOM    710  C4  C   B  40      37.347  50.511  40.478  0.00  0.00    +0.000 A 
ATOM    711  N4  C   B  40      38.003  50.198  39.368  0.00  0.00    +0.000 N 
ATOM    712  C5  C   B  40      37.880  51.470  41.387  0.00  0.00    +0.000 A 
ATOM    713  C6  C   B  40      37.167  51.751  42.488  0.00  0.00    +0.000 A 
ATOM    714  H   C   B  40      37.628  49.534  38.745  0.00  0.00    +0.000 HD
ATOM    715  H   C   B  40      38.865  50.629  39.167  0.00  0.00    +0.000 HD
ENDBRANCH 325 706
BRANCH 365 716
ATOM    716  N1  C   B  44      25.758  50.070  36.947  0.00  0.00    +0.000 N 
ATOM    717  C2  C   B  44      27.129  50.236  36.722  0.00  0.00    +0.000 A 
ATOM    718  O2  C   B  44      27.524  51.227  36.086  0.00  0.00    +0.000 OA
ATOM    719  N3  C   B  44      27.999  49.311  37.207  0.00  0.00    +0.000 NA
ATOM    720  C4  C   B  44      27.545  48.255  37.890  0.00  0.00    +0.000 A 
ATOM    721  N4  C   B  44      28.438  47.375  38.348  0.00  0.00    +0.000 N 
ATOM    722  C5  C   B  44      26.157  48.063  38.132  0.00  0.00    +0.000 A 
ATOM    723  C6  C   B  44      25.309  48.988  37.649  0.00  0.00    +0.000 A 
ATOM    724  H   C   B  44      29.398  47.513  38.177  0.00  0.00    +0.000 HD
ATOM    725  H   C   B  44      28.137  46.588  38.857  0.00  0.00    +0.000 HD
ENDBRANCH 365 716
BRANCH 505 726
ATOM    726  N1  C   B  58       0.312  28.587   3.608  0.00  0.00    +0.000 N 
ATOM    727  C2  C   B  58      -0.141  29.017   2.354  0.00  0.00    +0.000 A 
ATOM    728  O2  C   B  58       0.638  28.984   1.379  0.00  0.00    +0.000 OA
ATOM    729  N3  C   B  58      -1.419  29.463   2.227  0.00  0.00    +0.000 NA
ATOM    730  C4  C   B  58      -2.225  29.481   3.293  0.00  0.00    +0.000 A 
ATOM    731  N4  C   B  58      -3.470  29.928   3.119  0.00  0.00    +0.000 N 
ATOM    732  C5  C   B  58      -1.791  29.051   4.576  0.00  0.00    +0.000 A 
ATOM    733  C6  C   B  58      -0.524  28.614   4.686  0.00  0.00    +0.000 A 
ATOM    734  H   C   B  58      -3.766  30.225   2.228  0.00  0.00    +0.000 HD
ATOM    735  H   C   B  58      -4.092  29.961   3.881  0.00  0.00    +0.000 HD
ENDBRANCH 505 726
BRANCH  55 736
ATOM    736  N1  C   B  13      -3.164  12.201  17.606  0.00  0.00    +0.000 N 
ATOM    737  C2  C   B  13      -3.609  13.474  17.228  0.00  0.00    +0.000 A 
ATOM    738  O2  C   B  13      -4.233  14.171  18.043  0.00  0.00    +0.000 OA
ATOM    739  N3  C   B  13      -3.351  13.920  15.974  0.00  0.00    +0.000 NA
ATOM    740  C4  C   B  13      -2.677  13.150  15.111  0.00  0.00    +0.000 A 
ATOM    741  N4  C   B  13      -2.449  13.633  13.886  0.00  0.00    +0.000 N 
ATOM    742  C5  C   B  13      -2.211  11.853  15.467  0.00  0.00    +0.000 A 
ATOM    743  C6  C   B  13      -2.472  11.422  16.710  0.00  0.00    +0.000 A 
ATOM    744  H   C   B  13      -1.956  13.092  13.227  0.00  0.00    +0.000 HD
ATOM    745  H   C   B  13      -2.774  14.530  13.642  0.00  0.00    +0.000 HD
ENDBRANCH  55 736
BRANCH 145 746
ATOM    746  N1  C   B  22       9.392  18.105  18.232  0.00  0.00    +0.000 N 
ATOM    747  C2  C   B  22       9.283  18.225  16.840  0.00  0.00    +0.000 A 
ATOM    748  O2  C   B  22       9.877  17.415  16.116  0.00  0.00    +0.000 OA
ATOM    749  N3  C   B  22       8.532  19.227  16.320  0.00  0.00    +0.000 NA
ATOM    750  C4  C   B  22       7.904  20.083  17.130  0.00  0.00    +0.000 A 
ATOM    751  N4  C   B  22       7.177  21.051  16.566  0.00  0.00    +0.000 N 
ATOM    752  C5  C   B  22       8.000  19.983  18.548  0.00  0.00    +0.000 A 
ATOM    753  C6  C   B  22       8.748  18.990  19.052  0.00  0.00    +0.000 A 
ATOM    754  H   C   B  22       7.116  21.113  15.585  0.00  0.00    +0.000 HD
ATOM    755  H   C   B  22       6.702  21.703  17.131  0.00  0.00    +0.000 HD
ENDBRANCH 145 746
BRANCH 135 756
ATOM    756  N9  A   B  21       5.203  17.769  20.105  0.00  0.00    +0.000 N 
ATOM    757  C8  A   B  21       4.509  18.929  19.856  0.00  0.00    +0.000 A 
ATOM    758  N7  A   B  21       4.473  19.262  18.585  0.00  0.00    +0.000 NA
ATOM    759  C5  A   B  21       5.191  18.254  17.957  0.00  0.00    +0.000 A 
ATOM    760  C6  A   B  21       5.517  18.025  16.609  0.00  0.00    +0.000 A 
ATOM    761  N1  A   B  21       6.250  16.927  16.317  0.00  0.00    +0.000 NA
ATOM    762  C2  A   B  21       6.624  16.119  17.315  0.00  0.00    +0.000 A 
ATOM    763  N3  A   B  21       6.376  16.226  18.620  0.00  0.00    +0.000 NA
ATOM    764  C4  A   B  21       5.646  17.328  18.878  0.00  0.00    +0.000 A 
BRANCH 760 765
ATOM    765  N6  A   B  21       5.144  18.838  15.608  0.00  0.00    +0.000 N 
ATOM    766  H   A   B  21       5.401  18.628  14.681  0.00  0.00    +0.000 HD
ATOM    767  H   A   B  21       4.613  19.645  15.801  0.00  0.00    +0.000 HD
ENDBRANCH 760 765
ENDBRANCH 135 756
BRANCH 535 768
ATOM    768  N9  A   B  61       6.759  17.674   1.405  0.00  0.00    +0.000 N 
ATOM    769  C8  A   B  61       7.931  17.889   2.081  0.00  0.00    +0.000 A 
ATOM    770  N7  A   B  61       8.907  18.344   1.324  0.00  0.00    +0.000 NA
ATOM    771  C5  A   B  61       8.335  18.433   0.059  0.00  0.00    +0.000 A 
ATOM    772  C6  A   B  61       8.846  18.848  -1.187  0.00  0.00    +0.000 A 
ATOM    773  N1  A   B  61       8.007  18.819  -2.247  0.00  0.00    +0.000 NA
ATOM    774  C2  A   B  61       6.747  18.398  -2.057  0.00  0.00    +0.000 A 
ATOM    775  N3  A   B  61       6.153  17.981  -0.939  0.00  0.00    +0.000 NA
ATOM    776  C4  A   B  61       7.013  18.025   0.097  0.00  0.00    +0.000 A 
BRANCH 772 777
ATOM    777  N6  A   B  61      10.105  19.267  -1.369  0.00  0.00    +0.000 N 
ATOM    778  H   A   B  61      10.407  19.545  -2.264  0.00  0.00    +0.000 HD
ATOM    779  H   A   B  61      10.729  19.297  -0.608  0.00  0.00    +0.000 HD
ENDBRANCH 772 777
ENDBRANCH 535 768
BRANCH  25 780
ATOM    780  N1  U   B  10       8.664  14.990  12.683  0.00  0.00    +0.000 N 
ATOM    781  C2  U   B  10       8.099  15.398  13.876  0.00  0.00    +0.000 A 
ATOM    782  O2  U   B  10       8.395  14.913  14.952  0.00  0.00    +0.000 OA
ATOM    783  N3  U   B  10       7.160  16.394  13.767  0.00  0.00    +0.000 N 
ATOM    784  C4  U   B  10       6.741  17.020  12.611  0.00  0.00    +0.000 A 
ATOM    785  O4  U   B  10       5.886  17.901  12.677  0.00  0.00    +0.000 OA
ATOM    786  C5  U   B  10       7.376  16.546  11.416  0.00  0.00    +0.000 A 
ATOM    787  C6  U   B  10       8.296  15.572  11.490  0.00  0.00    +0.000 A 
ATOM    788  H   U   B  10       6.740  16.694  14.605  0.00  0.00    +0.000 HD
ENDBRANCH  25 780
BRANCH 125 789
ATOM    789  N9  A   B  20       0.565  18.339  20.380  0.00  0.00    +0.000 N 
ATOM    790  C8  A   B  20       0.210  19.367  19.545  0.00  0.00    +0.000 A 
ATOM    791  N7  A   B  20       0.635  19.211  18.311  0.00  0.00    +0.000 NA
ATOM    792  C5  A   B  20       1.316  18.004  18.338  0.00  0.00    +0.000 A 
ATOM    793  C6  A   B  20       2.002  17.277  17.349  0.00  0.00    +0.000 A 
ATOM    794  N1  A   B  20       2.572  16.106  17.708  0.00  0.00    +0.000 NA
ATOM    795  C2  A   B  20       2.459  15.699  18.976  0.00  0.00    +0.000 A 
ATOM    796  N3  A   B  20       1.839  16.292  19.998  0.00  0.00    +0.000 NA
ATOM    797  C4  A   B  20       1.282  17.455  19.605  0.00  0.00    +0.000 A 
BRANCH 793 798
ATOM    798  N6  A   B  20       2.117  17.687  16.076  0.00  0.00    +0.000 N 
ATOM    799  H   A   B  20       2.609  17.137  15.424  0.00  0.00    +0.000 HD
ATOM    800  H   A   B  20       1.709  18.537  15.794  0.00  0.00    +0.000 HD
ENDBRANCH 793 798
ENDBRANCH 125 789
BRANCH 115 801
ATOM    801  N9  A   B  19      -3.558  18.896  17.975  0.00  0.00    +0.000 N 
ATOM    802  C8  A   B  19      -3.541  19.496  16.741  0.00  0.00    +0.000 A 
ATOM    803  N7  A   B  19      -2.767  18.886  15.873  0.00  0.00    +0.000 NA
ATOM    804  C5  A   B  19      -2.236  17.816  16.583  0.00  0.00    +0.000 A 
ATOM    805  C6  A   B  19      -1.344  16.788  16.234  0.00  0.00    +0.000 A 
ATOM    806  N1  A   B  19      -1.025  15.880  17.187  0.00  0.00    +0.000 NA
ATOM    807  C2  A   B  19      -1.566  16.003  18.405  0.00  0.00    +0.000 A 
ATOM    808  N3  A   B  19      -2.419  16.924  18.854  0.00  0.00    +0.000 NA
ATOM    809  C4  A   B  19      -2.715  17.811  17.880  0.00  0.00    +0.000 A 
BRANCH 805 810
ATOM    810  N6  A   B  19      -0.799  16.661  15.016  0.00  0.00    +0.000 N 
ATOM    811  H   A   B  19      -1.017  17.310  14.309  0.00  0.00    +0.000 HD
ATOM    812  H   A   B  19      -0.180  15.919  14.829  0.00  0.00    +0.000 HD
ENDBRANCH 805 810
ENDBRANCH 115 801
BRANCH  75 813
ATOM    813  N1  U   B  15     -10.354  12.927  12.209  0.00  0.00    +0.000 N 
ATOM    814  C2  U   B  15      -9.543  13.254  11.134  0.00  0.00    +0.000 A 
ATOM    815  O2  U   B  15      -9.780  14.193  10.385  0.00  0.00    +0.000 OA
ATOM    816  N3  U   B  15      -8.438  12.457  10.969  0.00  0.00    +0.000 N 
ATOM    817  C4  U   B  15      -8.071  11.384  11.757  0.00  0.00    +0.000 A 
ATOM    818  O4  U   B  15      -7.047  10.757  11.477  0.00  0.00    +0.000 OA
ATOM    819  C5  U   B  15      -8.958  11.104  12.851  0.00  0.00    +0.000 A 
ATOM    820  C6  U   B  15     -10.043  11.868  13.033  0.00  0.00    +0.000 A 
ATOM    821  H   U   B  15      -7.847  12.672  10.212  0.00  0.00    +0.000 HD
ENDBRANCH  75 813
BRANCH 195 822
ATOM    822  N1  U   B  27      12.919  35.743  17.880  0.00  0.00    +0.000 N 
ATOM    823  C2  U   B  27      12.278  35.156  18.959  0.00  0.00    +0.000 A 
ATOM    824  O2  U   B  27      11.215  35.558  19.400  0.00  0.00    +0.000 OA
ATOM    825  N3  U   B  27      12.927  34.072  19.506  0.00  0.00    +0.000 N 
ATOM    826  C4  U   B  27      14.129  33.534  19.096  0.00  0.00    +0.000 A 
ATOM    827  O4  U   B  27      14.588  32.558  19.690  0.00  0.00    +0.000 OA
ATOM    828  C5  U   B  27      14.729  34.196  17.979  0.00  0.00    +0.000 A 
ATOM    829  C6  U   B  27      14.120  35.254  17.425  0.00  0.00    +0.000 A 
ATOM    830  H   U   B  27      12.487  33.635  20.270  0.00  0.00    +0.000 HD
ENDBRANCH 195 822
BRANCH  65 831
ATOM    831  N9  A   B  14      -7.245  13.515  15.625  0.00  0.00    +0.000 N 
ATOM    832  C8  A   B  14      -6.485  12.380  15.471  0.00  0.00    +0.000 A 
ATOM    833  N7  A   B  14      -5.903  12.291  14.299  0.00  0.00    +0.000 NA
ATOM    834  C5  A   B  14      -6.305  13.445  13.635  0.00  0.00    +0.000 A 
ATOM    835  C6  A   B  14      -6.029  13.947  12.352  0.00  0.00    +0.000 A 
ATOM    836  N1  A   B  14      -6.593  15.126  12.004  0.00  0.00    +0.000 NA
ATOM    837  C2  A   B  14      -7.375  15.751  12.889  0.00  0.00    +0.000 A 
ATOM    838  N3  A   B  14      -7.707  15.382  14.124  0.00  0.00    +0.000 NA
ATOM    839  C4  A   B  14      -7.131  14.205  14.440  0.00  0.00    +0.000 A 
BRANCH 835 840
ATOM    840  N6  A   B  14      -5.245  13.321  11.462  0.00  0.00    +0.000 N 
ATOM    841  H   A   B  14      -5.088  13.722  10.577  0.00  0.00    +0.000 HD
ATOM    842  H   A   B  14      -4.827  12.460  11.694  0.00  0.00    +0.000 HD
ENDBRANCH 835 840
ENDBRANCH  65 831
BRANCH  45 843
ATOM    843  N1  U   B  12       1.439  11.599  17.906  0.00  0.00    +0.000 N 
ATOM    844  C2  U   B  12       0.716  12.769  18.114  0.00  0.00    +0.000 A 
ATOM    845  O2  U   B  12       0.308  13.117  19.208  0.00  0.00    +0.000 OA
ATOM    846  N3  U   B  12       0.473  13.520  16.990  0.00  0.00    +0.000 N 
ATOM    847  C4  U   B  12       0.878  13.232  15.702  0.00  0.00    +0.000 A 
ATOM    848  O4  U   B  12       0.591  14.006  14.788  0.00  0.00    +0.000 OA
ATOM    849  C5  U   B  12       1.620  12.013  15.562  0.00  0.00    +0.000 A 
ATOM    850  C6  U   B  12       1.872  11.262  16.643  0.00  0.00    +0.000 A 
ATOM    851  H   U   B  12      -0.043  14.349  17.116  0.00  0.00    +0.000 HD
ENDBRANCH  45 843
BRANCH  35 852
ATOM    852  N1  U   B  11       5.531  12.584  15.891  0.00  0.00    +0.000 N 
ATOM    853  C2  U   B  11       4.746  13.400  16.696  0.00  0.00    +0.000 A 
ATOM    854  O2  U   B  11       4.652  13.246  17.900  0.00  0.00    +0.000 OA
ATOM    855  N3  U   B  11       4.071  14.400  16.037  0.00  0.00    +0.000 N 
ATOM    856  C4  U   B  11       4.098  14.665  14.686  0.00  0.00    +0.000 A 
ATOM    857  O4  U   B  11       3.436  15.605  14.241  0.00  0.00    +0.000 OA
ATOM    858  C5  U   B  11       4.927  13.782  13.920  0.00  0.00    +0.000 A 
ATOM    859  C6  U   B  11       5.600  12.799  14.534  0.00  0.00    +0.000 A 
ATOM    860  H   U   B  11       3.508  14.989  16.590  0.00  0.00    +0.000 HD
ENDBRANCH  35 852
BRANCH 455 861
ATOM    861  N9  A   B  53      12.975  30.337  27.746  0.00  0.00    +0.000 N 
ATOM    862  C8  A   B  53      13.836  29.396  27.241  0.00  0.00    +0.000 A 
ATOM    863  N7  A   B  53      14.435  29.771  26.131  0.00  0.00    +0.000 NA
ATOM    864  C5  A   B  53      13.931  31.044  25.892  0.00  0.00    +0.000 A 
ATOM    865  C6  A   B  53      14.166  31.983  24.876  0.00  0.00    +0.000 A 
ATOM    866  N1  A   B  53      13.500  33.154  24.933  0.00  0.00    +0.000 NA
ATOM    867  C2  A   B  53      12.653  33.366  25.948  0.00  0.00    +0.000 A 
ATOM    868  N3  A   B  53      12.349  32.562  26.970  0.00  0.00    +0.000 NA
ATOM    869  C4  A   B  53      13.030  31.403  26.880  0.00  0.00    +0.000 A 
BRANCH 865 870
ATOM    870  N6  A   B  53      15.009  31.773  23.856  0.00  0.00    +0.000 N 
ATOM    871  H   A   B  53      15.135  32.468  23.170  0.00  0.00    +0.000 HD
ATOM    872  H   A   B  53      15.502  30.923  23.792  0.00  0.00    +0.000 HD
ENDBRANCH 865 870
ENDBRANCH 455 861
BRANCH 385 873
ATOM    873  N1  U   B  46      28.448  47.122  27.552  0.00  0.00    +0.000 N 
ATOM    874  C2  U   B  46      29.434  46.210  27.896  0.00  0.00    +0.000 A 
ATOM    875  O2  U   B  46      30.492  46.116  27.295  0.00  0.00    +0.000 OA
ATOM    876  N3  U   B  46      29.138  45.404  28.971  0.00  0.00    +0.000 N 
ATOM    877  C4  U   B  46      27.979  45.417  29.722  0.00  0.00    +0.000 A 
ATOM    878  O4  U   B  46      27.860  44.627  30.663  0.00  0.00    +0.000 OA
ATOM    879  C5  U   B  46      27.011  46.385  29.303  0.00  0.00    +0.000 A 
ATOM    880  C6  U   B  46      27.271  47.186  28.258  0.00  0.00    +0.000 A 
ATOM    881  H   U   B  46      29.825  44.749  29.232  0.00  0.00    +0.000 HD
ENDBRANCH 385 873
BRANCH 355 882
ATOM    882  N9  A   B  43      25.085  50.467  41.321  0.00  0.00    +0.000 N 
ATOM    883  C8  A   B  43      25.740  49.386  41.855  0.00  0.00    +0.000 A 
ATOM    884  N7  A   B  43      27.023  49.350  41.574  0.00  0.00    +0.000 NA
ATOM    885  C5  A   B  43      27.223  50.488  40.802  0.00  0.00    +0.000 A 
ATOM    886  C6  A   B  43      28.369  51.026  40.191  0.00  0.00    +0.000 A 
ATOM    887  N1  A   B  43      28.232  52.172  39.492  0.00  0.00    +0.000 NA
ATOM    888  C2  A   B  43      27.016  52.738  39.421  0.00  0.00    +0.000 A 
ATOM    889  N3  A   B  43      25.868  52.328  39.958  0.00  0.00    +0.000 NA
ATOM    890  C4  A   B  43      26.041  51.183  40.642  0.00  0.00    +0.000 A 
BRANCH 886 891
ATOM    891  N6  A   B  43      29.582  50.459  40.259  0.00  0.00    +0.000 N 
ATOM    892  H   A   B  43      30.349  50.882  39.810  0.00  0.00    +0.000 HD
ATOM    893  H   A   B  43      29.706  49.619  40.758  0.00  0.00    +0.000 HD
ENDBRANCH 886 891
ENDBRANCH 355 882
BRANCH 395 894
ATOM    894  N1  U   B  47      29.534  42.967  25.434  0.00  0.00    +0.000 N 
ATOM    895  C2  U   B  47      30.138  42.028  26.260  0.00  0.00    +0.000 A 
ATOM    896  O2  U   B  47      31.219  41.521  26.012  0.00  0.00    +0.000 OA
ATOM    897  N3  U   B  47      29.430  41.704  27.395  0.00  0.00    +0.000 N 
ATOM    898  C4  U   B  47      28.203  42.207  27.778  0.00  0.00    +0.000 A 
ATOM    899  O4  U   B  47      27.690  41.815  28.828  0.00  0.00    +0.000 OA
ATOM    900  C5  U   B  47      27.643  43.169  26.871  0.00  0.00    +0.000 A 
ATOM    901  C6  U   B  47      28.310  43.508  25.756  0.00  0.00    +0.000 A 
ATOM    902  H   U   B  47      29.842  41.044  27.997  0.00  0.00    +0.000 HD
ENDBRANCH 395 894
BRANCH 345 903
ATOM    903  N1  U   B  42      25.188  51.285  45.362  0.00  0.00    +0.000 N 
ATOM    904  C2  U   B  42      24.522  52.373  44.818  0.00  0.00    +0.000 A 
ATOM    905  O2  U   B  42      23.355  52.640  45.077  0.00  0.00    +0.000 OA
ATOM    906  N3  U   B  42      25.270  53.144  43.960  0.00  0.00    +0.000 N 
ATOM    907  C4  U   B  42      26.590  52.940  43.594  0.00  0.00    +0.000 A 
ATOM    908  O4  U   B  42      27.122  53.723  42.808  0.00  0.00    +0.000 OA
ATOM    909  C5  U   B  42      27.206  51.799  44.195  0.00  0.00    +0.000 A 
ATOM    910  C6  U   B  42      26.502  51.031  45.039  0.00  0.00    +0.000 A 
ATOM    911  H   U   B  42      24.819  53.924  43.564  0.00  0.00    +0.000 HD
ENDBRANCH 345 903
BRANCH 335 912
ATOM    912  N1  U   B  41      28.529  53.046  47.753  0.00  0.00    +0.000 N 
ATOM    913  C2  U   B  41      27.328  53.667  47.461  0.00  0.00    +0.000 A 
ATOM    914  O2  U   B  41      26.282  53.404  48.032  0.00  0.00    +0.000 OA
ATOM    915  N3  U   B  41      27.386  54.619  46.468  0.00  0.00    +0.000 N 
ATOM    916  C4  U   B  41      28.501  55.003  45.756  0.00  0.00    +0.000 A 
ATOM    917  O4  U   B  41      28.389  55.877  44.890  0.00  0.00    +0.000 OA
ATOM    918  C5  U   B  41      29.701  54.314  46.114  0.00  0.00    +0.000 A 
ATOM    919  C6  U   B  41      29.676  53.385  47.083  0.00  0.00    +0.000 A 
ATOM    920  H   U   B  41      26.542  55.073  46.243  0.00  0.00    +0.000 HD
ENDBRANCH 335 912
BRANCH 415 921
ATOM    921  N1  U   B  49      29.019  33.868  25.153  0.00  0.00    +0.000 N 
ATOM    922  C2  U   B  49      28.582  33.720  26.459  0.00  0.00    +0.000 A 
ATOM    923  O2  U   B  49      29.086  32.936  27.246  0.00  0.00    +0.000 OA
ATOM    924  N3  U   B  49      27.528  34.529  26.821  0.00  0.00    +0.000 N 
ATOM    925  C4  U   B  49      26.877  35.449  26.021  0.00  0.00    +0.000 A 
ATOM    926  O4  U   B  49      25.941  36.102  26.487  0.00  0.00    +0.000 OA
ATOM    927  C5  U   B  49      27.382  35.539  24.686  0.00  0.00    +0.000 A 
ATOM    928  C6  U   B  49      28.410  34.764  24.307  0.00  0.00    +0.000 A 
ATOM    929  H   U   B  49      27.204  34.443  27.747  0.00  0.00    +0.000 HD
ENDBRANCH 415 921
BRANCH 315 930
ATOM    930  N1  U   B  39      35.944  53.834  38.864  0.00  0.00    +0.000 N 
ATOM    931  C2  U   B  39      36.497  52.572  38.953  0.00  0.00    +0.000 A 
ATOM    932  O2  U   B  39      35.932  51.634  39.489  0.00  0.00    +0.000 OA
ATOM    933  N3  U   B  39      37.745  52.445  38.391  0.00  0.00    +0.000 N 
ATOM    934  C4  U   B  39      38.477  53.427  37.757  0.00  0.00    +0.000 A 
ATOM    935  O4  U   B  39      39.582  53.153  37.303  0.00  0.00    +0.000 OA
ATOM    936  C5  U   B  39      37.840  54.699  37.708  0.00  0.00    +0.000 A 
ATOM    937  C6  U   B  39      36.620  54.856  38.247  0.00  0.00    +0.000 A 
ATOM    938  H   U   B  39      38.162  51.555  38.447  0.00  0.00    +0.000 HD
ENDBRANCH 315 930
BRANCH 425 939
ATOM    939  N1  U   B  50      26.164  30.722  26.524  0.00  0.00    +0.000 N 
ATOM    940  C2  U   B  50      25.390  31.253  27.544  0.00  0.00    +0.000 A 
ATOM    941  O2  U   B  50      25.350  30.777  28.665  0.00  0.00    +0.000 OA
ATOM    942  N3  U   B  50      24.659  32.370  27.206  0.00  0.00    +0.000 N 
ATOM    943  C4  U   B  50      24.621  32.994  25.976  0.00  0.00    +0.000 A 
ATOM    944  O4  U   B  50      23.912  33.991  25.825  0.00  0.00    +0.000 OA
ATOM    945  C5  U   B  50      25.444  32.384  24.975  0.00  0.00    +0.000 A 
ATOM    946  C6  U   B  50      26.169  31.296  25.275  0.00  0.00    +0.000 A 
ATOM    947  H   U   B  50      24.105  32.765  27.917  0.00  0.00    +0.000 HD
ENDBRANCH 425 939
BRANCH 305 948
ATOM    948  N1  U   B  38      31.964  53.579  35.784  0.00  0.00    +0.000 N 
ATOM    949  C2  U   B  38      31.145  52.920  36.682  0.00  0.00    +0.000 A 
ATOM    950  O2  U   B  38      30.083  53.376  37.080  0.00  0.00    +0.000 OA
ATOM    951  N3  U   B  38      31.611  51.696  37.104  0.00  0.00    +0.000 N 
ATOM    952  C4  U   B  38      32.788  51.077  36.728  0.00  0.00    +0.000 A 
ATOM    953  O4  U   B  38      33.067  49.976  37.200  0.00  0.00    +0.000 OA
ATOM    954  C5  U   B  38      33.575  51.822  35.796  0.00  0.00    +0.000 A 
ATOM    955  C6  U   B  38      33.144  53.019  35.365  0.00  0.00    +0.000 A 
ATOM    956  H   U   B  38      31.044  51.208  37.744  0.00  0.00    +0.000 HD
ENDBRANCH 305 948
BRANCH 435 957
ATOM    957  N1  U   B  51      22.087  29.217  28.054  0.00  0.00    +0.000 N 
ATOM    958  C2  U   B  51      21.299  30.260  28.516  0.00  0.00    +0.000 A 
ATOM    959  O2  U   B  51      20.843  30.300  29.646  0.00  0.00    +0.000 OA
ATOM    960  N3  U   B  51      21.061  31.265  27.606  0.00  0.00    +0.000 N 
ATOM    961  C4  U   B  51      21.517  31.329  26.305  0.00  0.00    +0.000 A 
ATOM    962  O4  U   B  51      21.215  32.299  25.607  0.00  0.00    +0.000 OA
ATOM    963  C5  U   B  51      22.319  30.214  25.902  0.00  0.00    +0.000 A 
ATOM    964  C6  U   B  51      22.571  29.221  26.767  0.00  0.00    +0.000 A 
ATOM    965  H   U   B  51      20.507  32.018  27.916  0.00  0.00    +0.000 HD
ENDBRANCH 435 957
BRANCH 285 966
ATOM    966  N1  U   B  36      33.742  45.937  30.602  0.00  0.00    +0.000 N 
ATOM    967  C2  U   B  36      32.469  46.260  31.039  0.00  0.00    +0.000 A 
ATOM    968  O2  U   B  36      31.704  46.967  30.403  0.00  0.00    +0.000 OA
ATOM    969  N3  U   B  36      32.118  45.726  32.257  0.00  0.00    +0.000 N 
ATOM    970  C4  U   B  36      32.891  44.917  33.070  0.00  0.00    +0.000 A 
ATOM    971  O4  U   B  36      32.429  44.517  34.140  0.00  0.00    +0.000 OA
ATOM    972  C5  U   B  36      34.190  44.629  32.550  0.00  0.00    +0.000 A 
ATOM    973  C6  U   B  36      34.562  45.137  31.362  0.00  0.00    +0.000 A 
ATOM    974  H   U   B  36      31.216  45.944  32.587  0.00  0.00    +0.000 HD
ENDBRANCH 285 966
BRANCH 445 975
ATOM    975  N1  U   B  52      17.443  29.237  28.718  0.00  0.00    +0.000 N 
ATOM    976  C2  U   B  52      16.927  30.513  28.549  0.00  0.00    +0.000 A 
ATOM    977  O2  U   B  52      16.255  31.078  29.399  0.00  0.00    +0.000 OA
ATOM    978  N3  U   B  52      17.226  31.112  27.348  0.00  0.00    +0.000 N 
ATOM    979  C4  U   B  52      17.968  30.574  26.316  0.00  0.00    +0.000 A 
ATOM    980  O4  U   B  52      18.148  31.236  25.293  0.00  0.00    +0.000 OA
ATOM    981  C5  U   B  52      18.463  29.254  26.563  0.00  0.00    +0.000 A 
ATOM    982  C6  U   B  52      18.190  28.646  27.726  0.00  0.00    +0.000 A 
ATOM    983  H   U   B  52      16.874  32.021  27.210  0.00  0.00    +0.000 HD
ENDBRANCH 445 975
BRANCH 155 984
ATOM    984  N1  U   B  23      12.622  20.081  15.274  0.00  0.00    +0.000 N 
ATOM    985  C2  U   B  23      12.040  20.725  14.192  0.00  0.00    +0.000 A 
ATOM    986  O2  U   B  23      12.393  20.542  13.042  0.00  0.00    +0.000 OA
ATOM    987  N3  U   B  23      11.024  21.596  14.508  0.00  0.00    +0.000 N 
ATOM    988  C4  U   B  23      10.543  21.883  15.768  0.00  0.00    +0.000 A 
ATOM    989  O4  U   B  23       9.620  22.693  15.891  0.00  0.00    +0.000 OA
ATOM    990  C5  U   B  23      11.196  21.183  16.830  0.00  0.00    +0.000 A 
ATOM    991  C6  U   B  23      12.189  20.326  16.555  0.00  0.00    +0.000 A 
ATOM    992  H   U   B  23      10.595  22.064  13.756  0.00  0.00    +0.000 HD
ENDBRANCH 155 984
BRANCH 255 993
ATOM    993  N1  U   B  33      29.978  34.286  32.375  0.00  0.00    +0.000 N 
ATOM    994  C2  U   B  33      30.047  34.790  31.090  0.00  0.00    +0.000 A 
ATOM    995  O2  U   B  33      30.738  34.294  30.215  0.00  0.00    +0.000 OA
ATOM    996  N3  U   B  33      29.270  35.901  30.853  0.00  0.00    +0.000 N 
ATOM    997  C4  U   B  33      28.451  36.544  31.759  0.00  0.00    +0.000 A 
ATOM    998  O4  U   B  33      27.816  37.536  31.400  0.00  0.00    +0.000 OA
ATOM    999  C5  U   B  33      28.437  35.966  33.065  0.00  0.00    +0.000 A 
ATOM   1000  C6  U   B  33      29.184  34.884  33.324  0.00  0.00    +0.000 A 
ATOM   1001  H   U   B  33      29.302  36.276  29.943  0.00  0.00    +0.000 HD
ENDBRANCH 255 993
BRANCH 2451002
ATOM   1002  N9  A   B  32      25.548  33.404  33.250  0.00  0.00    +0.000 N 
ATOM   1003  C8  A   B  32      24.892  34.592  33.441  0.00  0.00    +0.000 A 
ATOM   1004  N7  A   B  32      24.915  35.379  32.391  0.00  0.00    +0.000 NA
ATOM   1005  C5  A   B  32      25.641  34.663  31.447  0.00  0.00    +0.000 A 
ATOM   1006  C6  A   B  32      26.020  34.948  30.128  0.00  0.00    +0.000 A 
ATOM   1007  N1  A   B  32      26.740  34.022  29.465  0.00  0.00    +0.000 NA
ATOM   1008  C2  A   B  32      27.053  32.881  30.091  0.00  0.00    +0.000 A 
ATOM   1009  N3  A   B  32      26.752  32.497  31.330  0.00  0.00    +0.000 NA
ATOM   1010  C4  A   B  32      26.037  33.444  31.964  0.00  0.00    +0.000 A 
BRANCH10061011
ATOM   1011  N6  A   B  32      25.709  36.090  29.498  0.00  0.00    +0.000 N 
ATOM   1012  H   A   B  32      26.003  36.236  28.570  0.00  0.00    +0.000 HD
ATOM   1013  H   A   B  32      25.187  36.783  29.964  0.00  0.00    +0.000 HD
ENDBRANCH10061011
ENDBRANCH 2451002
BRANCH 4651014
ATOM   1014  N9  A   B  54       9.478  31.650  24.899  0.00  0.00    +0.000 N 
ATOM   1015  C8  A   B  54      10.087  30.424  25.018  0.00  0.00    +0.000 A 
ATOM   1016  N7  A   B  54      11.028  30.215  24.124  0.00  0.00    +0.000 NA
ATOM   1017  C5  A   B  54      11.034  31.381  23.365  0.00  0.00    +0.000 A 
ATOM   1018  C6  A   B  54      11.800  31.791  22.262  0.00  0.00    +0.000 A 
ATOM   1019  N1  A   B  54      11.552  33.012  21.742  0.00  0.00    +0.000 NA
ATOM   1020  C2  A   B  54      10.597  33.768  22.296  0.00  0.00    +0.000 A 
ATOM   1021  N3  A   B  54       9.810  33.495  23.340  0.00  0.00    +0.000 NA
ATOM   1022  C4  A   B  54      10.083  32.269  23.831  0.00  0.00    +0.000 A 
BRANCH10181023
ATOM   1023  N6  A   B  54      12.754  31.034  21.703  0.00  0.00    +0.000 N 
ATOM   1024  H   A   B  54      13.261  31.372  20.930  0.00  0.00    +0.000 HD
ATOM   1025  H   A   B  54      12.948  30.139  22.065  0.00  0.00    +0.000 HD
ENDBRANCH10181023
ENDBRANCH 4651014
BRANCH 2351026
ATOM   1026  N9  A   B  31      20.962  34.579  32.564  0.00  0.00    +0.000 N 
ATOM   1027  C8  A   B  31      20.690  35.849  32.123  0.00  0.00    +0.000 A 
ATOM   1028  N7  A   B  31      21.208  36.121  30.946  0.00  0.00    +0.000 NA
ATOM   1029  C5  A   B  31      21.866  34.950  30.590  0.00  0.00    +0.000 A 
ATOM   1030  C6  A   B  31      22.611  34.589  29.457  0.00  0.00    +0.000 A 
ATOM   1031  N1  A   B  31      23.133  33.346  29.415  0.00  0.00    +0.000 NA
ATOM   1032  C2  A   B  31      22.915  32.520  30.447  0.00  0.00    +0.000 A 
ATOM   1033  N3  A   B  31      22.227  32.744  31.568  0.00  0.00    +0.000 NA
ATOM   1034  C4  A   B  31      21.723  33.994  31.577  0.00  0.00    +0.000 A 
BRANCH10301035
ATOM   1035  N6  A   B  31      22.834  35.412  28.424  0.00  0.00    +0.000 N 
ATOM   1036  H   A   B  31      23.365  35.103  27.655  0.00  0.00    +0.000 HD
ATOM   1037  H   A   B  31      22.467  36.325  28.434  0.00  0.00    +0.000 HD
ENDBRANCH10301035
ENDBRANCH 2351026
BRANCH 2251038
ATOM   1038  N9  A   B  30      17.097  36.208  30.380  0.00  0.00    +0.000 N 
ATOM   1039  C8  A   B  30      17.283  37.194  29.443  0.00  0.00    +0.000 A 
ATOM   1040  N7  A   B  30      18.086  36.843  28.462  0.00  0.00    +0.000 NA
ATOM   1041  C5  A   B  30      18.454  35.539  28.777  0.00  0.00    +0.000 A 
ATOM   1042  C6  A   B  30      19.289  34.608  28.141  0.00  0.00    +0.000 A 
ATOM   1043  N1  A   B  30      19.442  33.399  28.717  0.00  0.00    +0.000 NA
ATOM   1044  C2  A   B  30      18.798  33.146  29.863  0.00  0.00    +0.000 A 
ATOM   1045  N3  A   B  30      17.981  33.940  30.561  0.00  0.00    +0.000 NA
ATOM   1046  C4  A   B  30      17.853  35.137  29.956  0.00  0.00    +0.000 A 
BRANCH10421047
ATOM   1047  N6  A   B  30      19.940  34.858  26.996  0.00  0.00    +0.000 N 
ATOM   1048  H   A   B  30      20.513  34.166  26.594  0.00  0.00    +0.000 HD
ATOM   1049  H   A   B  30      19.845  35.734  26.557  0.00  0.00    +0.000 HD
ENDBRANCH10421047
ENDBRANCH 2251038
BRANCH 4751050
ATOM   1050  N9  A   B  55       7.543  32.327  20.680  0.00  0.00    +0.000 N 
ATOM   1051  C8  A   B  55       7.673  31.156  21.390  0.00  0.00    +0.000 A 
ATOM   1052  N7  A   B  55       8.681  30.411  20.995  0.00  0.00    +0.000 NA
ATOM   1053  C5  A   B  55       9.250  31.140  19.958  0.00  0.00    +0.000 A 
ATOM   1054  C6  A   B  55      10.353  30.897  19.123  0.00  0.00    +0.000 A 
ATOM   1055  N1  A   B  55      10.652  31.826  18.190  0.00  0.00    +0.000 NA
ATOM   1056  C2  A   B  55       9.891  32.925  18.104  0.00  0.00    +0.000 A 
ATOM   1057  N3  A   B  55       8.830  33.269  18.836  0.00  0.00    +0.000 NA
ATOM   1058  C4  A   B  55       8.559  32.319  19.753  0.00  0.00    +0.000 A 
BRANCH10541059
ATOM   1059  N6  A   B  55      11.114  29.796  19.206  0.00  0.00    +0.000 N 
ATOM   1060  H   A   B  55      11.876  29.677  18.594  0.00  0.00    +0.000 HD
ATOM   1061  H   A   B  55      10.910  29.107  19.879  0.00  0.00    +0.000 HD
ENDBRANCH10541059
ENDBRANCH 4751050
BRANCH 2151062
ATOM   1062  N9  A   B  29      14.278  37.297  26.795  0.00  0.00    +0.000 N 
ATOM   1063  C8  A   B  29      14.900  37.765  25.665  0.00  0.00    +0.000 A 
ATOM   1064  N7  A   B  29      15.778  36.924  25.162  0.00  0.00    +0.000 NA
ATOM   1065  C5  A   B  29      15.731  35.833  26.022  0.00  0.00    +0.000 A 
ATOM   1066  C6  A   B  29      16.418  34.611  26.044  0.00  0.00    +0.000 A 
ATOM   1067  N1  A   B  29      16.136  33.744  27.038  0.00  0.00    +0.000 NA
ATOM   1068  C2  A   B  29      15.221  34.089  27.952  0.00  0.00    +0.000 A 
ATOM   1069  N3  A   B  29      14.502  35.212  28.038  0.00  0.00    +0.000 NA
ATOM   1070  C4  A   B  29      14.811  36.051  27.031  0.00  0.00    +0.000 A 
BRANCH10661071
ATOM   1071  N6  A   B  29      17.339  34.264  25.135  0.00  0.00    +0.000 N 
ATOM   1072  H   A   B  29      17.562  34.880  24.400  0.00  0.00    +0.000 HD
ATOM   1073  H   A   B  29      17.793  33.393  25.202  0.00  0.00    +0.000 HD
ENDBRANCH10661071
ENDBRANCH 2151062
BRANCH 2051074
ATOM   1074  N1  U   B  28      12.916  37.296  22.323  0.00  0.00    +0.000 N 
ATOM   1075  C2  U   B  28      12.832  36.235  23.212  0.00  0.00    +0.000 A 
ATOM   1076  O2  U   B  28      11.970  36.151  24.070  0.00  0.00    +0.000 OA
ATOM   1077  N3  U   B  28      13.800  35.267  23.061  0.00  0.00    +0.000 N 
ATOM   1078  C4  U   B  28      14.823  35.256  22.134  0.00  0.00    +0.000 A 
ATOM   1079  O4  U   B  28      15.619  34.319  22.123  0.00  0.00    +0.000 OA
ATOM   1080  C5  U   B  28      14.842  36.386  21.255  0.00  0.00    +0.000 A 
ATOM   1081  C6  U   B  28      13.912  37.345  21.379  0.00  0.00    +0.000 A 
ATOM   1082  H   U   B  28      13.758  34.502  23.679  0.00  0.00    +0.000 HD
ENDBRANCH 2051074
BRANCH 3751083
ATOM   1083  N1  U   B  45      27.740  49.851  30.964  0.00  0.00    +0.000 N 
ATOM   1084  C2  U   B  45      28.964  49.414  30.481  0.00  0.00    +0.000 A 
ATOM   1085  O2  U   B  45      29.564  49.972  29.578  0.00  0.00    +0.000 OA
ATOM   1086  N3  U   B  45      29.465  48.290  31.096  0.00  0.00    +0.000 N 
ATOM   1087  C4  U   B  45      28.882  47.569  32.122  0.00  0.00    +0.000 A 
ATOM   1088  O4  U   B  45      29.464  46.576  32.569  0.00  0.00    +0.000 OA
ATOM   1089  C5  U   B  45      27.626  48.084  32.566  0.00  0.00    +0.000 A 
ATOM   1090  C6  U   B  45      27.110  49.184  31.988  0.00  0.00    +0.000 A 
ATOM   1091  H   U   B  45      30.334  47.963  30.770  0.00  0.00    +0.000 HD
ENDBRANCH 3751083
BRANCH 1851092
ATOM   1092  N1  U   B  26      13.836  32.609  14.490  0.00  0.00    +0.000 N 
ATOM   1093  C2  U   B  26      12.752  32.588  15.349  0.00  0.00    +0.000 A 
ATOM   1094  O2  U   B  26      11.765  33.286  15.194  0.00  0.00    +0.000 OA
ATOM   1095  N3  U   B  26      12.860  31.711  16.406  0.00  0.00    +0.000 N 
ATOM   1096  C4  U   B  26      13.923  30.879  16.684  0.00  0.00    +0.000 A 
ATOM   1097  O4  U   B  26      13.877  30.148  17.675  0.00  0.00    +0.000 OA
ATOM   1098  C5  U   B  26      15.004  30.963  15.751  0.00  0.00    +0.000 A 
ATOM   1099  C6  U   B  26      14.927  31.805  14.712  0.00  0.00    +0.000 A 
ATOM   1100  H   U   B  26      12.098  31.675  17.028  0.00  0.00    +0.000 HD
ENDBRANCH 1851092
BRANCH 1751101
ATOM   1101  N1  U   B  25      14.540  28.399  12.835  0.00  0.00    +0.000 N 
ATOM   1102  C2  U   B  25      13.290  28.896  13.157  0.00  0.00    +0.000 A 
ATOM   1103  O2  U   B  25      12.643  29.605  12.408  0.00  0.00    +0.000 OA
ATOM   1104  N3  U   B  25      12.815  28.528  14.398  0.00  0.00    +0.000 N 
ATOM   1105  C4  U   B  25      13.456  27.737  15.327  0.00  0.00    +0.000 A 
ATOM   1106  O4  U   B  25      12.902  27.497  16.402  0.00  0.00    +0.000 OA
ATOM   1107  C5  U   B  25      14.743  27.267  14.922  0.00  0.00    +0.000 A 
ATOM   1108  C6  U   B  25      15.231  27.606  13.721  0.00  0.00    +0.000 A 
ATOM   1109  H   U   B  25      11.924  28.866  14.647  0.00  0.00    +0.000 HD
ENDBRANCH 1751101
BRANCH 1651110
ATOM   1110  N1  U   B  24      14.225  23.880  13.220  0.00  0.00    +0.000 N 
ATOM   1111  C2  U   B  24      13.162  24.674  12.823  0.00  0.00    +0.000 A 
ATOM   1112  O2  U   B  24      13.015  25.066  11.679  0.00  0.00    +0.000 OA
ATOM   1113  N3  U   B  24      12.268  24.991  13.820  0.00  0.00    +0.000 N 
ATOM   1114  C4  U   B  24      12.332  24.608  15.143  0.00  0.00    +0.000 A 
ATOM   1115  O4  U   B  24      11.450  24.977  15.923  0.00  0.00    +0.000 OA
ATOM   1116  C5  U   B  24      13.460  23.796  15.473  0.00  0.00    +0.000 A 
ATOM   1117  C6  U   B  24      14.348  23.468  14.524  0.00  0.00    +0.000 A 
ATOM   1118  H   U   B  24      11.501  25.551  13.561  0.00  0.00    +0.000 HD
ENDBRANCH 1651110
BRANCH  111119
ATOM   1119  N6  A   B   9      13.354  11.984  -2.007  0.00  0.00    +0.000 NA
ATOM   1120  H   A   B   9      13.557  12.581  -2.809  0.00  0.00    +0.000 HD
ATOM   1121  H   A   B   9      12.438  11.551  -2.128  0.00  0.00    +0.000 HD
ENDBRANCH  111119
BRANCH 4461122
ATOM   1122  OP1 A   B  53      13.117  24.066  29.436  0.00  0.00    +0.000 OA
ATOM   1123  H   A   B  53      12.404  23.825  28.824  0.00  0.00    +0.000 HD
ENDBRANCH 4461122
BRANCH 3361124
ATOM   1124  OP1 U   B  42      29.149  46.351  46.742  0.00  0.00    +0.000 OA
ATOM   1125  H   U   B  42      29.000  45.872  45.912  0.00  0.00    +0.000 HD
ENDBRANCH 3361124
BRANCH 4541126
ATOM   1126  O2' A   B  53       9.849  30.554  29.604  0.00  0.00    +0.000 OA
ATOM   1127  H   A   B  53      10.127  30.289  30.495  0.00  0.00    +0.000 HD
ENDBRANCH 4541126
BRANCH 4561128
ATOM   1128  OP1 A   B  54       7.351  26.607  28.334  0.00  0.00    +0.000 OA
ATOM   1129  H   A   B  54       6.806  26.264  27.609  0.00  0.00    +0.000 HD
ENDBRANCH 4561128
BRANCH 4641130
ATOM   1130  O2' A   B  54       6.218  33.190  25.419  0.00  0.00    +0.000 OA
ATOM   1131  H   A   B  54       6.164  33.220  26.387  0.00  0.00    +0.000 HD
ENDBRANCH 4641130
BRANCH 3841132
ATOM   1132  O2' U   B  46      29.346  47.818  24.088  0.00  0.00    +0.000 OA
ATOM   1133  H   U   B  46      29.268  48.784  24.054  0.00  0.00    +0.000 HD
ENDBRANCH 3841132
BRANCH 3861134
ATOM   1134  OP2 U   B  47      24.920  45.865  23.955  0.00  0.00    +0.000 OA
ATOM   1135  H   U   B  47      24.474  45.057  23.656  0.00  0.00    +0.000 HD
ENDBRANCH 3861134
BRANCH 3941136
ATOM   1136  O2' U   B  47      31.282  42.217  22.339  0.00  0.00    +0.000 OA
ATOM   1137  H   U   B  47      31.535  43.099  22.025  0.00  0.00    +0.000 HD
ENDBRANCH 3941136
BRANCH 3961138
ATOM   1138  OP2 A   B  48      26.743  41.244  21.433  0.00  0.00    +0.000 OA
ATOM   1139  H   A   B  48      26.185  41.983  21.145  0.00  0.00    +0.000 HD
ENDBRANCH 3961138
BRANCH 4041140
ATOM   1140  O2' A   B  48      32.192  36.261  22.427  0.00  0.00    +0.000 OA
ATOM   1141  H   A   B  48      32.727  36.924  21.962  0.00  0.00    +0.000 HD
ENDBRANCH 4041140
BRANCH 4061142
ATOM   1142  OP2 U   B  49      27.807  36.110  20.404  0.00  0.00    +0.000 OA
ATOM   1143  H   U   B  49      27.645  36.815  19.758  0.00  0.00    +0.000 HD
ENDBRANCH 4061142
BRANCH 4141144
ATOM   1144  O2' U   B  49      30.728  30.694  24.593  0.00  0.00    +0.000 OA
ATOM   1145  H   U   B  49      31.552  30.984  24.171  0.00  0.00    +0.000 HD
ENDBRANCH 4141144
BRANCH 4161146
ATOM   1146  OP2 U   B  50      27.187  30.915  21.210  0.00  0.00    +0.000 OA
ATOM   1147  H   U   B  50      27.494  31.281  20.366  0.00  0.00    +0.000 HD
ENDBRANCH 4161146
BRANCH 4241148
ATOM   1148  O2' U   B  50      26.636  27.321  27.737  0.00  0.00    +0.000 OA
ATOM   1149  H   U   B  50      27.581  27.179  27.570  0.00  0.00    +0.000 HD
ENDBRANCH 4241148
BRANCH 4261150
ATOM   1150  OP1 U   B  51      24.667  24.510  24.380  0.00  0.00    +0.000 OA
ATOM   1151  H   U   B  51      25.220  24.349  23.599  0.00  0.00    +0.000 HD
ENDBRANCH 4261150
BRANCH 4341152
ATOM   1152  O2' U   B  51      21.175  26.614  30.431  0.00  0.00    +0.000 OA
ATOM   1153  H   U   B  51      22.039  26.229  30.645  0.00  0.00    +0.000 HD
ENDBRANCH 4341152
BRANCH 4361154
ATOM   1154  OP1 U   B  52      19.290  23.058  27.786  0.00  0.00    +0.000 OA
ATOM   1155  H   U   B  52      19.937  22.504  27.322  0.00  0.00    +0.000 HD
ENDBRANCH 4361154
BRANCH 4441156
ATOM   1156  O2' U   B  52      15.243  27.973  31.334  0.00  0.00    +0.000 OA
ATOM   1157  H   U   B  52      15.874  27.547  31.935  0.00  0.00    +0.000 HD
ENDBRANCH 4441156
BRANCH 5461158
ATOM   1158  OP2 U   B  63       6.610   9.475  -1.582  0.00  0.00    +0.000 OA
ATOM   1159  H   U   B  63       7.129   8.663  -1.688  0.00  0.00    +0.000 HD
ENDBRANCH 5461158
BRANCH 5531160
ATOM   1160  O2' U   B  63       9.432  11.435  -8.136  0.00  0.00    +0.000 OA
ATOM   1161  H   U   B  63       8.549  11.781  -8.339  0.00  0.00    +0.000 HD
ENDBRANCH 5531160
BRANCH 5441162
ATOM   1162  O2' C   B  62       4.523  13.315  -4.062  0.00  0.00    +0.000 OA
ATOM   1163  H   C   B  62       3.749  13.507  -3.509  0.00  0.00    +0.000 HD
ENDBRANCH 5441162
BRANCH 4741164
ATOM   1164  O2' A   B  55       4.970  34.618  19.507  0.00  0.00    +0.000 OA
ATOM   1165  H   A   B  55       4.697  35.053  20.330  0.00  0.00    +0.000 HD
ENDBRANCH 4741164
BRANCH 4761166
ATOM   1166  OP2 A   B  56       2.939  30.230  19.299  0.00  0.00    +0.000 OA
ATOM   1167  H   A   B  56       2.604  29.595  18.647  0.00  0.00    +0.000 HD
ENDBRANCH 4761166
BRANCH 4841168
ATOM   1168  O2' A   B  56       5.581  33.733  13.302  0.00  0.00    +0.000 OA
ATOM   1169  H   A   B  56       5.308  34.533  13.777  0.00  0.00    +0.000 HD
ENDBRANCH 4841168
BRANCH 4861170
ATOM   1170  OP2 A   B  57       2.171  30.353  14.040  0.00  0.00    +0.000 OA
ATOM   1171  H   A   B  57       1.754  29.602  13.589  0.00  0.00    +0.000 HD
ENDBRANCH 4861170
BRANCH 4941172
ATOM   1172  O2' A   B  57       6.790  29.644   8.284  0.00  0.00    +0.000 OA
ATOM   1173  H   A   B  57       6.791  30.613   8.233  0.00  0.00    +0.000 HD
ENDBRANCH 4941172
BRANCH 4961174
ATOM   1174  OP2 C   B  58       2.149  28.837   9.724  0.00  0.00    +0.000 OA
ATOM   1175  H   C   B  58       1.187  28.727   9.780  0.00  0.00    +0.000 HD
ENDBRANCH 4961174
BRANCH 5041176
ATOM   1176  O2' C   B  58       3.154  29.888   2.983  0.00  0.00    +0.000 OA
ATOM   1177  H   C   B  58       3.558  29.252   2.373  0.00  0.00    +0.000 HD
ENDBRANCH 5041176
BRANCH 4661178
ATOM   1178  OP1 A   B  55       3.029  29.689  24.503  0.00  0.00    +0.000 OA
ATOM   1179  H   A   B  55       2.616  29.216  23.763  0.00  0.00    +0.000 HD
ENDBRANCH 4661178
BRANCH 5061180
ATOM   1180  OP1 A   B  59       6.387  29.793   4.491  0.00  0.00    +0.000 OA
ATOM   1181  H   A   B  59       6.192  30.250   3.658  0.00  0.00    +0.000 HD
ENDBRANCH 5061180
BRANCH 5141182
ATOM   1182  O2' A   B  59      10.366  23.900   6.182  0.00  0.00    +0.000 OA
ATOM   1183  H   A   B  59      10.381  24.711   5.650  0.00  0.00    +0.000 HD
ENDBRANCH 5141182
BRANCH 5161184
ATOM   1184  OP2 G   B  60       5.784  22.225   5.737  0.00  0.00    +0.000 OA
ATOM   1185  H   G   B  60       5.222  22.879   5.293  0.00  0.00    +0.000 HD
ENDBRANCH 5161184
BRANCH 5241186
ATOM   1186  O2' G   B  60      11.181  17.602   7.998  0.00  0.00    +0.000 OA
ATOM   1187  H   G   B  60      11.795  18.135   7.469  0.00  0.00    +0.000 HD
ENDBRANCH 5241186
BRANCH 5261188
ATOM   1188  OP1 A   B  61       8.584  15.678   7.040  0.00  0.00    +0.000 OA
ATOM   1189  H   A   B  61       8.076  14.852   7.006  0.00  0.00    +0.000 HD
ENDBRANCH 5261188
BRANCH 5341190
ATOM   1190  O2' A   B  61       3.897  15.417   1.492  0.00  0.00    +0.000 OA
ATOM   1191  H   A   B  61       3.458  15.685   2.315  0.00  0.00    +0.000 HD
ENDBRANCH 5341190
BRANCH 5361192
ATOM   1192  OP1 C   B  62       5.872  11.195   2.861  0.00  0.00    +0.000 OA
ATOM   1193  H   C   B  62       6.399  10.462   2.505  0.00  0.00    +0.000 HD
ENDBRANCH 5361192
BRANCH  661194
ATOM   1194  OP1 U   B  15     -13.430  11.306  17.582  0.00  0.00    +0.000 OA
ATOM   1195  H   U   B  15     -14.070  10.767  17.091  0.00  0.00    +0.000 HD
ENDBRANCH  661194
BRANCH   51196
ATOM   1196  O2' A   B   9      10.557  13.601   4.383  0.00  0.00    +0.000 OA
ATOM   1197  H   A   B   9      10.942  14.448   4.657  0.00  0.00    +0.000 HD
ENDBRANCH   51196
BRANCH 3761198
ATOM   1198  OP2 U   B  46      23.249  48.474  28.289  0.00  0.00    +0.000 OA
ATOM   1199  H   U   B  46      22.899  47.712  27.801  0.00  0.00    +0.000 HD
ENDBRANCH 3761198
BRANCH  241200
ATOM   1200  O2' U   B  10       9.996  11.739  13.693  0.00  0.00    +0.000 OA
ATOM   1201  H   U   B  10      10.834  11.709  13.205  0.00  0.00    +0.000 HD
ENDBRANCH  241200
BRANCH  261202
ATOM   1202  OP1 U   B  11       7.522   8.483  11.131  0.00  0.00    +0.000 OA
ATOM   1203  H   U   B  11       7.769   8.423  10.195  0.00  0.00    +0.000 HD
ENDBRANCH  261202
BRANCH  341204
ATOM   1204  O2' U   B  11       5.856   9.668  18.046  0.00  0.00    +0.000 OA
ATOM   1205  H   U   B  11       6.809   9.491  18.013  0.00  0.00    +0.000 HD
ENDBRANCH  341204
BRANCH  361206
ATOM   1206  OP1 U   B  12       4.256   5.906  15.540  0.00  0.00    +0.000 OA
ATOM   1207  H   U   B  12       4.547   5.762  14.626  0.00  0.00    +0.000 HD
ENDBRANCH  361206
BRANCH  441208
ATOM   1208  O2' U   B  12       0.727   9.911  21.082  0.00  0.00    +0.000 OA
ATOM   1209  H   U   B  12       1.551   9.423  21.236  0.00  0.00    +0.000 HD
ENDBRANCH  441208
BRANCH  461210
ATOM   1210  OP1 C   B  13      -0.979   5.360  19.492  0.00  0.00    +0.000 OA
ATOM   1211  H   C   B  13      -1.563   4.736  19.033  0.00  0.00    +0.000 HD
ENDBRANCH  461210
BRANCH  541212
ATOM   1212  O2' C   B  13      -5.251  11.564  20.573  0.00  0.00    +0.000 OA
ATOM   1213  H   C   B  13      -4.667  10.998  21.101  0.00  0.00    +0.000 HD
ENDBRANCH  541212
BRANCH  561214
ATOM   1214  OP1 A   B  14      -8.297   8.043  19.023  0.00  0.00    +0.000 OA
ATOM   1215  H   A   B  14      -9.024   7.771  18.441  0.00  0.00    +0.000 HD
ENDBRANCH  561214
BRANCH  641216
ATOM   1216  O2' A   B  14     -10.175  14.871  17.292  0.00  0.00    +0.000 OA
ATOM   1217  H   A   B  14      -9.904  14.861  18.223  0.00  0.00    +0.000 HD
ENDBRANCH  641216
BRANCH  741218
ATOM   1218  O2' U   B  15     -13.286  12.641  11.078  0.00  0.00    +0.000 OA
ATOM   1219  H   U   B  15     -13.427  13.492  10.634  0.00  0.00    +0.000 HD
ENDBRANCH  741218
BRANCH  761220
ATOM   1220  OP1 C   B  16     -16.477  15.171  13.818  0.00  0.00    +0.000 OA
ATOM   1221  H   C   B  16     -17.446  15.216  13.817  0.00  0.00    +0.000 HD
ENDBRANCH  761220
BRANCH  841222
ATOM   1222  O2' C   B  16     -15.847  19.940   8.247  0.00  0.00    +0.000 OA
ATOM   1223  H   C   B  16     -15.926  19.175   7.656  0.00  0.00    +0.000 HD
ENDBRANCH  841222
BRANCH  861224
ATOM   1224  OP2 C   B  17     -13.022  17.923  11.877  0.00  0.00    +0.000 OA
ATOM   1225  H   C   B  17     -12.917  16.984  11.659  0.00  0.00    +0.000 HD
ENDBRANCH  861224
BRANCH  941226
ATOM   1226  O2' C   B  17     -12.618  23.287  14.354  0.00  0.00    +0.000 OA
ATOM   1227  H   C   B  17     -12.528  24.241  14.202  0.00  0.00    +0.000 HD
ENDBRANCH  941226
BRANCH  961228
ATOM   1228  OP1 G   B  18      -9.496  25.615  12.509  0.00  0.00    +0.000 OA
ATOM   1229  H   G   B  18      -9.947  26.420  12.209  0.00  0.00    +0.000 HD
ENDBRANCH  961228
BRANCH 1041230
ATOM   1230  O2' G   B  18      -8.559  21.121  16.996  0.00  0.00    +0.000 OA
ATOM   1231  H   G   B  18      -9.352  21.498  16.583  0.00  0.00    +0.000 HD
ENDBRANCH 1041230
BRANCH 1061232
ATOM   1232  OP1 A   B  19      -5.927  25.168  17.416  0.00  0.00    +0.000 OA
ATOM   1233  H   A   B  19      -6.258  25.867  16.831  0.00  0.00    +0.000 HD
ENDBRANCH 1061232
BRANCH 1141234
ATOM   1234  O2' A   B  19      -3.801  19.649  21.510  0.00  0.00    +0.000 OA
ATOM   1235  H   A   B  19      -4.748  19.828  21.623  0.00  0.00    +0.000 HD
ENDBRANCH 1141234
BRANCH 1161236
ATOM   1236  OP1 A   B  20      -1.995  24.046  22.115  0.00  0.00    +0.000 OA
ATOM   1237  H   A   B  20      -2.530  24.787  21.790  0.00  0.00    +0.000 HD
ENDBRANCH 1161236
BRANCH 1241238
ATOM   1238  O2' A   B  20       1.446  17.882  23.888  0.00  0.00    +0.000 OA
ATOM   1239  H   A   B  20       0.578  17.901  24.320  0.00  0.00    +0.000 HD
ENDBRANCH 1241238
BRANCH  161240
ATOM   1240  OP2 U   B  10      13.449  13.624   8.753  0.00  0.00    +0.000 OA
ATOM   1241  H   U   B  10      14.000  14.383   8.506  0.00  0.00    +0.000 HD
ENDBRANCH  161240
BRANCH 3041242
ATOM   1242  O2' U   B  38      30.833  57.010  36.253  0.00  0.00    +0.000 OA
ATOM   1243  H   U   B  38      30.699  57.313  35.341  0.00  0.00    +0.000 HD
ENDBRANCH 3041242
BRANCH 2341244
ATOM   1244  O2' A   B  31      21.508  32.769  35.687  0.00  0.00    +0.000 OA
ATOM   1245  H   A   B  31      20.615  32.749  36.065  0.00  0.00    +0.000 HD
ENDBRANCH 2341244
BRANCH 2361246
ATOM   1246  OP1 A   B  32      23.490  36.032  38.703  0.00  0.00    +0.000 OA
ATOM   1247  H   A   B  32      24.342  36.450  38.903  0.00  0.00    +0.000 HD
ENDBRANCH 2361246
BRANCH 2441248
ATOM   1248  O2' A   B  32      27.456  30.997  35.226  0.00  0.00    +0.000 OA
ATOM   1249  H   A   B  32      26.756  30.564  35.739  0.00  0.00    +0.000 HD
ENDBRANCH 2441248
BRANCH 2461250
ATOM   1250  OP1 U   B  33      29.451  33.590  38.815  0.00  0.00    +0.000 OA
ATOM   1251  H   U   B  33      29.766  32.675  38.754  0.00  0.00    +0.000 HD
ENDBRANCH 2461250
BRANCH 2541252
ATOM   1252  O2' U   B  33      33.102  32.417  32.617  0.00  0.00    +0.000 OA
ATOM   1253  H   U   B  33      32.805  31.578  33.002  0.00  0.00    +0.000 HD
ENDBRANCH 2541252
BRANCH 2561254
ATOM   1254  OP1 A   B  34      35.383  34.313  36.463  0.00  0.00    +0.000 OA
ATOM   1255  H   A   B  34      35.914  33.687  35.946  0.00  0.00    +0.000 HD
ENDBRANCH 2561254
BRANCH 2641256
ATOM   1256  O2' A   B  34      36.737  36.784  29.763  0.00  0.00    +0.000 OA
ATOM   1257  H   A   B  34      36.878  35.825  29.805  0.00  0.00    +0.000 HD
ENDBRANCH 2641256
BRANCH 2661258
ATOM   1258  OP2 A   B  35      37.385  38.321  34.502  0.00  0.00    +0.000 OA
ATOM   1259  H   A   B  35      36.425  38.267  34.374  0.00  0.00    +0.000 HD
ENDBRANCH 2661258
BRANCH 2741260
ATOM   1260  O2' A   B  35      37.128  42.221  27.806  0.00  0.00    +0.000 OA
ATOM   1261  H   A   B  35      37.652  41.405  27.802  0.00  0.00    +0.000 HD
ENDBRANCH 2741260
BRANCH 1261262
ATOM   1262  OP1 A   B  21       3.297  21.942  25.415  0.00  0.00    +0.000 OA
ATOM   1263  H   A   B  21       4.198  22.301  25.416  0.00  0.00    +0.000 HD
ENDBRANCH 1261262
BRANCH 2841264
ATOM   1264  O2' U   B  36      34.360  48.624  28.206  0.00  0.00    +0.000 OA
ATOM   1265  H   U   B  36      34.744  48.142  27.457  0.00  0.00    +0.000 HD
ENDBRANCH 2841264
BRANCH 2861266
ATOM   1266  OP2 A   B  37      37.564  49.084  31.702  0.00  0.00    +0.000 OA
ATOM   1267  H   A   B  37      38.297  48.453  31.627  0.00  0.00    +0.000 HD
ENDBRANCH 2861266
BRANCH 2941268
ATOM   1268  O2' A   B  37      32.646  54.524  30.796  0.00  0.00    +0.000 OA
ATOM   1269  H   A   B  37      32.847  54.434  29.851  0.00  0.00    +0.000 HD
ENDBRANCH 2941268
BRANCH 2961270
ATOM   1270  OP2 U   B  38      36.782  53.631  33.290  0.00  0.00    +0.000 OA
ATOM   1271  H   U   B  38      37.515  53.341  32.725  0.00  0.00    +0.000 HD
ENDBRANCH 2961270
BRANCH 2761272
ATOM   1272  OP2 U   B  36      38.604  44.129  32.291  0.00  0.00    +0.000 OA
ATOM   1273  H   U   B  36      37.704  43.779  32.383  0.00  0.00    +0.000 HD
ENDBRANCH 2761272
BRANCH 3061274
ATOM   1274  OP1 U   B  39      34.831  59.776  37.033  0.00  0.00    +0.000 OA
ATOM   1275  H   U   B  39      34.840  60.263  36.194  0.00  0.00    +0.000 HD
ENDBRANCH 3061274
BRANCH 3141276
ATOM   1276  O2' U   B  39      33.551  53.883  41.599  0.00  0.00    +0.000 OA
ATOM   1277  H   U   B  39      32.730  54.135  41.148  0.00  0.00    +0.000 HD
ENDBRANCH 3141276
BRANCH 3161278
ATOM   1278  OP1 C   B  40      34.532  58.015  43.962  0.00  0.00    +0.000 OA
ATOM   1279  H   C   B  40      34.880  58.762  43.450  0.00  0.00    +0.000 HD
ENDBRANCH 3161278
BRANCH 3241280
ATOM   1280  O2' C   B  40      36.314  50.276  45.760  0.00  0.00    +0.000 OA
ATOM   1281  H   C   B  40      35.480  49.806  45.917  0.00  0.00    +0.000 HD
ENDBRANCH 3241280
BRANCH 3261282
ATOM   1282  OP2 U   B  41      33.464  52.568  48.982  0.00  0.00    +0.000 OA
ATOM   1283  H   U   B  41      34.085  53.313  48.989  0.00  0.00    +0.000 HD
ENDBRANCH 3261282
BRANCH 3341284
ATOM   1284  O2' U   B  41      27.353  49.981  49.356  0.00  0.00    +0.000 OA
ATOM   1285  H   U   B  41      27.931  49.922  50.132  0.00  0.00    +0.000 HD
ENDBRANCH 3341284
BRANCH 3441286
ATOM   1286  O2' U   B  42      22.366  49.183  46.281  0.00  0.00    +0.000 OA
ATOM   1287  H   U   B  42      22.602  48.906  47.180  0.00  0.00    +0.000 HD
ENDBRANCH 3441286
BRANCH 3461288
ATOM   1288  OP1 A   B  43      22.799  45.160  43.843  0.00  0.00    +0.000 OA
ATOM   1289  H   A   B  43      22.831  44.685  42.998  0.00  0.00    +0.000 HD
ENDBRANCH 3461288
BRANCH 3541290
ATOM   1290  O2' A   B  43      21.806  51.400  40.030  0.00  0.00    +0.000 OA
ATOM   1291  H   A   B  43      21.268  51.400  40.837  0.00  0.00    +0.000 HD
ENDBRANCH 3541290
BRANCH 3561292
ATOM   1292  OP2 C   B  44      22.310  46.609  38.817  0.00  0.00    +0.000 OA
ATOM   1293  H   C   B  44      22.407  46.010  38.060  0.00  0.00    +0.000 HD
ENDBRANCH 3561292
BRANCH 3641294
ATOM   1294  O2' C   B  44      24.310  52.155  34.317  0.00  0.00    +0.000 OA
ATOM   1295  H   C   B  44      23.630  52.647  34.803  0.00  0.00    +0.000 HD
ENDBRANCH 3641294
BRANCH 3661296
ATOM   1296  OP2 U   B  45      23.091  47.881  33.128  0.00  0.00    +0.000 OA
ATOM   1297  H   U   B  45      23.214  47.264  32.390  0.00  0.00    +0.000 HD
ENDBRANCH 3661296
BRANCH 3741298
ATOM   1298  O2' U   B  45      26.759  51.967  28.155  0.00  0.00    +0.000 OA
ATOM   1299  H   U   B  45      26.354  52.725  28.605  0.00  0.00    +0.000 HD
ENDBRANCH 3741298
BRANCH 1341300
ATOM   1300  O2' A   B  21       7.145  15.993  22.660  0.00  0.00    +0.000 OA
ATOM   1301  H   A   B  21       6.533  16.016  23.412  0.00  0.00    +0.000 HD
ENDBRANCH 1341300
BRANCH 1741302
ATOM   1302  O2' U   B  25      15.631  30.748  10.264  0.00  0.00    +0.000 OA
ATOM   1303  H   U   B  25      15.964  30.149   9.578  0.00  0.00    +0.000 HD
ENDBRANCH 1741302
BRANCH 1761304
ATOM   1304  OP2 U   B  26      18.976  31.020  13.818  0.00  0.00    +0.000 OA
ATOM   1305  H   U   B  26      19.725  30.417  13.692  0.00  0.00    +0.000 HD
ENDBRANCH 1761304
BRANCH 2261306
ATOM   1306  OP1 A   B  31      18.781  39.544  36.008  0.00  0.00    +0.000 OA
ATOM   1307  H   A   B  31      18.330  40.398  35.922  0.00  0.00    +0.000 HD
ENDBRANCH 2261306
BRANCH 1841308
ATOM   1308  O2' U   B  26      13.400  35.872  12.920  0.00  0.00    +0.000 OA
ATOM   1309  H   U   B  26      13.556  35.665  11.985  0.00  0.00    +0.000 HD
ENDBRANCH 1841308
BRANCH 1861310
ATOM   1310  OP2 U   B  27      17.666  36.106  15.238  0.00  0.00    +0.000 OA
ATOM   1311  H   U   B  27      18.430  35.851  14.698  0.00  0.00    +0.000 HD
ENDBRANCH 1861310
BRANCH 1941312
ATOM   1312  O2' U   B  27      11.370  39.045  17.903  0.00  0.00    +0.000 OA
ATOM   1313  H   U   B  27      11.185  39.185  16.961  0.00  0.00    +0.000 HD
ENDBRANCH 1941312
BRANCH 1661314
ATOM   1314  OP2 U   B  25      18.889  25.825  14.773  0.00  0.00    +0.000 OA
ATOM   1315  H   U   B  25      17.931  25.712  14.870  0.00  0.00    +0.000 HD
ENDBRANCH 1661314
BRANCH 1961316
ATOM   1316  OP2 U   B  28      16.116  39.845  18.675  0.00  0.00    +0.000 OA
ATOM   1317  H   U   B  28      16.624  40.002  17.864  0.00  0.00    +0.000 HD
ENDBRANCH 1961316
BRANCH 1641318
ATOM   1318  O2' U   B  24      16.658  24.571  10.589  0.00  0.00    +0.000 OA
ATOM   1319  H   U   B  24      16.962  23.679  10.361  0.00  0.00    +0.000 HD
ENDBRANCH 1641318
BRANCH 1561320
ATOM   1320  OP2 U   B  24      16.977  22.043  17.548  0.00  0.00    +0.000 OA
ATOM   1321  H   U   B  24      16.032  22.078  17.333  0.00  0.00    +0.000 HD
ENDBRANCH 1561320
BRANCH 2041322
ATOM   1322  O2' U   B  28      11.047  39.850  24.133  0.00  0.00    +0.000 OA
ATOM   1323  H   U   B  28      10.483  40.218  23.435  0.00  0.00    +0.000 HD
ENDBRANCH 2041322
BRANCH 2061324
ATOM   1324  OP1 A   B  29      14.209  43.478  24.737  0.00  0.00    +0.000 OA
ATOM   1325  H   A   B  29      14.328  44.039  23.955  0.00  0.00    +0.000 HD
ENDBRANCH 2061324
BRANCH 2241326
ATOM   1326  O2' A   B  30      16.502  35.827  33.954  0.00  0.00    +0.000 OA
ATOM   1327  H   A   B  30      15.583  36.126  34.038  0.00  0.00    +0.000 HD
ENDBRANCH 2241326
BRANCH 1541328
ATOM   1328  O2' U   B  23      15.814  19.079  13.815  0.00  0.00    +0.000 OA
ATOM   1329  H   U   B  23      15.903  18.168  14.137  0.00  0.00    +0.000 HD
ENDBRANCH 1541328
BRANCH 1461330
ATOM   1330  OP1 U   B  23      15.486  18.988  21.033  0.00  0.00    +0.000 OA
ATOM   1331  H   U   B  23      15.899  18.181  20.686  0.00  0.00    +0.000 HD
ENDBRANCH 1461330
BRANCH 2141332
ATOM   1332  O2' A   B  29      12.881  38.539  29.918  0.00  0.00    +0.000 OA
ATOM   1333  H   A   B  29      12.064  38.967  29.618  0.00  0.00    +0.000 HD
ENDBRANCH 2141332
BRANCH 1361334
ATOM   1334  OP1 C   B  22      10.032  19.618  24.533  0.00  0.00    +0.000 OA
ATOM   1335  H   C   B  22      10.736  20.279  24.442  0.00  0.00    +0.000 HD
ENDBRANCH 1361334
BRANCH 2161336
ATOM   1336  OP1 A   B  30      15.554  42.451  30.974  0.00  0.00    +0.000 OA
ATOM   1337  H   A   B  30      15.335  43.240  30.454  0.00  0.00    +0.000 HD
ENDBRANCH 2161336
BRANCH 1441338
ATOM   1338  O2' C   B  22      12.443  16.122  18.530  0.00  0.00    +0.000 OA
ATOM   1339  H   C   B  22      12.205  15.494  19.230  0.00  0.00    +0.000 HD
ENDBRANCH 1441338
BRANCH 5521340
ATOM   1340  O3' U   B  63       8.189   9.084  -7.436  0.00  0.00    +0.000 OA
BRANCH13401341
ATOM   1341  P   A   B  64       8.563   7.560  -7.249  0.00  0.00    +0.000 P 
ATOM   1342  OP1 A   B  64       7.986   6.820  -8.394  0.00  0.00    +0.000 OA
BRANCH13411343
ATOM   1343  OP2 A   B  64       8.226   7.145  -5.867  0.00  0.00    +0.000 OA
ATOM   1344  H   A   B  64       7.263   7.154  -5.752  0.00  0.00    +0.000 HD
ENDBRANCH13411343
BRANCH13411345
ATOM   1345  O5' A   B  64      10.156   7.531  -7.393  0.00  0.00    +0.000 OA
BRANCH13451346
ATOM   1346  C5' A   B  64      10.777   7.863  -8.623  0.00  0.00    +0.000 C 
BRANCH13461347
ATOM   1347  C4' A   B  64      12.280   7.912  -8.441  0.00  0.00    +0.000 C 
ATOM   1348  O4' A   B  64      12.572   8.859  -7.389  0.00  0.00    +0.000 OA
ATOM   1349  C3' A   B  64      12.915   6.585  -8.009  0.00  0.00    +0.000 C 
ATOM   1350  C2' A   B  64      13.891   6.930  -6.902  0.00  0.00    +0.000 C 
ATOM   1351  C1' A   B  64      13.642   8.403  -6.605  0.00  0.00    +0.000 C 
BRANCH13511352
ATOM   1352  N9  A   B  64      13.320   8.659  -5.185  0.00  0.00    +0.000 N 
ATOM   1353  C8  A   B  64      12.205   8.271  -4.483  0.00  0.00    +0.000 A 
ATOM   1354  N7  A   B  64      12.205   8.655  -3.227  0.00  0.00    +0.000 NA
ATOM   1355  C5  A   B  64      13.406   9.335  -3.093  0.00  0.00    +0.000 A 
ATOM   1356  C6  A   B  64      14.008   9.980  -2.001  0.00  0.00    +0.000 A 
ATOM   1357  N6  A   B  64      13.451  10.048  -0.783  0.00  0.00    +0.000 N 
ATOM   1358  N1  A   B  64      15.213  10.559  -2.205  0.00  0.00    +0.000 NA
ATOM   1359  C2  A   B  64      15.768  10.488  -3.422  0.00  0.00    +0.000 A 
ATOM   1360  N3  A   B  64      15.302   9.909  -4.527  0.00  0.00    +0.000 NA
ATOM   1361  C4  A   B  64      14.106   9.344  -4.290  0.00  0.00    +0.000 A 
ATOM   1362  H   A   B  64      12.574   9.631  -0.619  0.00  0.00    +0.000 HD
ATOM   1363  H   A   B  64      13.919  10.514  -0.053  0.00  0.00    +0.000 HD
ENDBRANCH13511352
BRANCH13501364
ATOM   1364  O2' A   B  64      15.264   6.760  -7.266  0.00  0.00    +0.000 OA
ATOM   1365  H   A   B  64      15.471   7.332  -8.021  0.00  0.00    +0.000 HD
ENDBRANCH13501364
BRANCH13491366
ATOM   1366  O3' A   B  64      13.604   5.958  -9.068  0.00  0.00    +0.000 OA
BRANCH13661367
ATOM   1367  P   C   B  65      13.121   5.592 -10.434  0.00  0.00    +0.000 P 
ATOM   1368  OP1 C   B  65      14.011   6.170 -11.472  0.00  0.00    +0.000 OA
BRANCH13671369
ATOM   1369  OP2 C   B  65      11.665   5.847 -10.501  0.00  0.00    +0.000 OA
ATOM   1370  H   C   B  65      11.336   5.614 -11.383  0.00  0.00    +0.000 HD
ENDBRANCH13671369
BRANCH13671371
ATOM   1371  O5' C   B  65      13.357   4.029 -10.409  0.00  0.00    +0.000 OA
BRANCH13711372
ATOM   1372  C5' C   B  65      12.460   3.167  -9.730  0.00  0.00    +0.000 C 
BRANCH13721373
ATOM   1373  C4' C   B  65      12.997   1.759  -9.712  0.00  0.00    +0.000 C 
ATOM   1374  O4' C   B  65      13.221   1.327 -11.077  0.00  0.00    +0.000 OA
ATOM   1375  C3' C   B  65      14.331   1.579  -8.993  0.00  0.00    +0.000 C 
ATOM   1376  C2' C   B  65      15.335   1.622 -10.135  0.00  0.00    +0.000 C 
ATOM   1377  C1' C   B  65      14.555   0.920 -11.238  0.00  0.00    +0.000 C 
BRANCH13771378
ATOM   1378  N1  C   B  65      15.002   1.276 -12.598  0.00  0.00    +0.000 N 
ATOM   1379  C2  C   B  65      15.777   0.349 -13.311  0.00  0.00    +0.000 A 
ATOM   1380  O2  C   B  65      16.064  -0.735 -12.777  0.00  0.00    +0.000 OA
ATOM   1381  N3  C   B  65      16.194   0.662 -14.562  0.00  0.00    +0.000 NA
ATOM   1382  C4  C   B  65      15.859   1.836 -15.099  0.00  0.00    +0.000 A 
ATOM   1383  N4  C   B  65      16.291   2.098 -16.327  0.00  0.00    +0.000 N 
ATOM   1384  C5  C   B  65      15.077   2.795 -14.392  0.00  0.00    +0.000 A 
ATOM   1385  C6  C   B  65      14.671   2.479 -13.156  0.00  0.00    +0.000 A 
ATOM   1386  H   C   B  65      16.831   1.432 -16.811  0.00  0.00    +0.000 HD
ATOM   1387  H   C   B  65      16.071   2.958 -16.753  0.00  0.00    +0.000 HD
ENDBRANCH13771378
BRANCH13761388
ATOM   1388  O2' C   B  65      16.550   0.957  -9.878  0.00  0.00    +0.000 OA
ATOM   1389  H   C   B  65      16.371   0.027  -9.667  0.00  0.00    +0.000 HD
ENDBRANCH13761388
BRANCH13751390
ATOM   1390  O3' C   B  65      14.363   0.305  -8.364  0.00  0.00    +0.000 OA
BRANCH13901391
ATOM   1391  P   A   B  66      14.319   0.146  -6.805  0.00  0.00    +0.000 P 
ATOM   1392  OP1 A   B  66      13.589  -1.105  -6.474  0.00  0.00    +0.000 OA
BRANCH13911393
ATOM   1393  OP2 A   B  66      13.880   1.423  -6.207  0.00  0.00    +0.000 OA
ATOM   1394  H   A   B  66      12.947   1.576  -6.421  0.00  0.00    +0.000 HD
ENDBRANCH13911393
BRANCH13911395
ATOM   1395  O5' A   B  66      15.864  -0.075  -6.431  0.00  0.00    +0.000 OA
BRANCH13951396
ATOM   1396  C5' A   B  66      16.820   0.903  -6.773  0.00  0.00    +0.000 C 
BRANCH13961397
ATOM   1397  C4' A   B  66      18.185   0.535  -6.246  0.00  0.00    +0.000 C 
ATOM   1398  O4' A   B  66      18.160   0.464  -4.806  0.00  0.00    +0.000 OA
ATOM   1399  C3' A   B  66      18.724  -0.816  -6.676  0.00  0.00    +0.000 C 
ATOM   1400  C2' A   B  66      19.754  -1.102  -5.588  0.00  0.00    +0.000 C 
ATOM   1401  C1' A   B  66      19.045  -0.548  -4.360  0.00  0.00    +0.000 C 
BRANCH14011402
ATOM   1402  N9  A   B  66      18.267  -1.577  -3.653  0.00  0.00    +0.000 N 
ATOM   1403  C8  A   B  66      16.922  -1.821  -3.725  0.00  0.00    +0.000 A 
ATOM   1404  N7  A   B  66      16.526  -2.815  -2.963  0.00  0.00    +0.000 NA
ATOM   1405  C5  A   B  66      17.690  -3.251  -2.346  0.00  0.00    +0.000 A 
ATOM   1406  C6  A   B  66      17.947  -4.276  -1.419  0.00  0.00    +0.000 A 
ATOM   1407  N6  A   B  66      17.003  -5.083  -0.933  0.00  0.00    +0.000 N 
ATOM   1408  N1  A   B  66      19.223  -4.445  -1.008  0.00  0.00    +0.000 NA
ATOM   1409  C2  A   B  66      20.171  -3.635  -1.498  0.00  0.00    +0.000 A 
ATOM   1410  N3  A   B  66      20.053  -2.635  -2.371  0.00  0.00    +0.000 NA
ATOM   1411  C4  A   B  66      18.770  -2.496  -2.760  0.00  0.00    +0.000 A 
ATOM   1412  H   A   B  66      16.068  -4.975  -1.220  0.00  0.00    +0.000 HD
ATOM   1413  H   A   B  66      17.242  -5.786  -0.287  0.00  0.00    +0.000 HD
ENDBRANCH14011402
BRANCH14001414
ATOM   1414  O2' A   B  66      20.959  -0.383  -5.794  0.00  0.00    +0.000 OA
ATOM   1415  H   A   B  66      20.764   0.566  -5.849  0.00  0.00    +0.000 HD
ENDBRANCH14001414
BRANCH13991416
ATOM   1416  O3' A   B  66      19.278  -0.784  -7.983  0.00  0.00    +0.000 OA
BRANCH14161417
ATOM   1417  P   A   B  67      19.326  -2.090  -8.870  0.00  0.00    +0.000 P 
ATOM   1418  OP1 A   B  67      19.510  -1.673 -10.284  0.00  0.00    +0.000 OA
BRANCH14171419
ATOM   1419  OP2 A   B  67      18.184  -2.966  -8.502  0.00  0.00    +0.000 OA
ATOM   1420  H   A   B  67      18.207  -3.771  -9.043  0.00  0.00    +0.000 HD
ENDBRANCH14171419
BRANCH14171421
ATOM   1421  O5' A   B  67      20.667  -2.799  -8.390  0.00  0.00    +0.000 OA
BRANCH14211422
ATOM   1422  C5' A   B  67      21.925  -2.152  -8.531  0.00  0.00    +0.000 C 
BRANCH14221423
ATOM   1423  C4' A   B  67      22.970  -2.812  -7.666  0.00  0.00    +0.000 C 
ATOM   1424  O4' A   B  67      22.585  -2.726  -6.272  0.00  0.00    +0.000 OA
ATOM   1425  C3' A   B  67      23.171  -4.297  -7.898  0.00  0.00    +0.000 C 
ATOM   1426  C2' A   B  67      23.782  -4.744  -6.576  0.00  0.00    +0.000 C 
ATOM   1427  C1' A   B  67      22.993  -3.890  -5.586  0.00  0.00    +0.000 C 
BRANCH14271428
ATOM   1428  N9  A   B  67      21.794  -4.579  -5.082  0.00  0.00    +0.000 N 
ATOM   1429  C8  A   B  67      20.512  -4.498  -5.559  0.00  0.00    +0.000 A 
ATOM   1430  N7  A   B  67      19.655  -5.232  -4.892  0.00  0.00    +0.000 NA
ATOM   1431  C5  A   B  67      20.423  -5.841  -3.911  0.00  0.00    +0.000 A 
ATOM   1432  C6  A   B  67      20.107  -6.742  -2.879  0.00  0.00    +0.000 A 
ATOM   1433  N6  A   B  67      18.872  -7.209  -2.662  0.00  0.00    +0.000 N 
ATOM   1434  N1  A   B  67      21.109  -7.150  -2.077  0.00  0.00    +0.000 NA
ATOM   1435  C2  A   B  67      22.342  -6.684  -2.299  0.00  0.00    +0.000 A 
ATOM   1436  N3  A   B  67      22.764  -5.835  -3.233  0.00  0.00    +0.000 NA
ATOM   1437  C4  A   B  67      21.741  -5.446  -4.016  0.00  0.00    +0.000 A 
ATOM   1438  H   A   B  67      18.128  -6.921  -3.239  0.00  0.00    +0.000 HD
ATOM   1439  H   A   B  67      18.707  -7.841  -1.925  0.00  0.00    +0.000 HD
ENDBRANCH14271428
BRANCH14261440
ATOM   1440  O2' A   B  67      25.155  -4.414  -6.488  0.00  0.00    +0.000 OA
ATOM   1441  H   A   B  67      25.267  -3.460  -6.620  0.00  0.00    +0.000 HD
ENDBRANCH14261440
BRANCH14251442
ATOM   1442  O3' A   B  67      23.997  -4.566  -9.022  0.00  0.00    +0.000 OA
BRANCH14421443
ATOM   1443  P   A   B  68      23.749  -5.872  -9.892  0.00  0.00    +0.000 P 
ATOM   1444  OP1 A   B  68      24.568  -5.750 -11.122  0.00  0.00    +0.000 OA
BRANCH14431445
ATOM   1445  OP2 A   B  68      22.287  -6.113  -9.997  0.00  0.00    +0.000 OA
ATOM   1446  H   A   B  68      21.884  -5.421 -10.544  0.00  0.00    +0.000 HD
ENDBRANCH14431445
BRANCH14431447
ATOM   1447  O5' A   B  68      24.372  -7.027  -8.989  0.00  0.00    +0.000 OA
BRANCH14471448
ATOM   1448  C5' A   B  68      25.754  -7.029  -8.653  0.00  0.00    +0.000 C 
BRANCH14481449
ATOM   1449  C4' A   B  68      26.027  -7.941  -7.481  0.00  0.00    +0.000 C 
ATOM   1450  O4' A   B  68      25.282  -7.494  -6.320  0.00  0.00    +0.000 OA
ATOM   1451  C3' A   B  68      25.592  -9.383  -7.654  0.00  0.00    +0.000 C 
ATOM   1452  C2' A   B  68      25.470  -9.846  -6.212  0.00  0.00    +0.000 C 
ATOM   1453  C1' A   B  68      24.851  -8.610  -5.566  0.00  0.00    +0.000 C 
BRANCH14531454
ATOM   1454  N9  A   B  68      23.379  -8.659  -5.603  0.00  0.00    +0.000 N 
ATOM   1455  C8  A   B  68      22.540  -8.098  -6.533  0.00  0.00    +0.000 A 
ATOM   1456  N7  A   B  68      21.271  -8.327  -6.302  0.00  0.00    +0.000 NA
ATOM   1457  C5  A   B  68      21.272  -9.091  -5.144  0.00  0.00    +0.000 A 
ATOM   1458  C6  A   B  68      20.238  -9.656  -4.379  0.00  0.00    +0.000 A 
ATOM   1459  N6  A   B  68      18.941  -9.534  -4.693  0.00  0.00    +0.000 N 
ATOM   1460  N1  A   B  68      20.582 -10.359  -3.281  0.00  0.00    +0.000 NA
ATOM   1461  C2  A   B  68      21.879 -10.483  -2.978  0.00  0.00    +0.000 A 
ATOM   1462  N3  A   B  68      22.940  -9.998  -3.617  0.00  0.00    +0.000 NA
ATOM   1463  C4  A   B  68      22.563  -9.302  -4.705  0.00  0.00    +0.000 A 
ATOM   1464  H   A   B  68      18.674  -9.024  -5.491  0.00  0.00    +0.000 HD
ATOM   1465  H   A   B  68      18.255  -9.954  -4.125  0.00  0.00    +0.000 HD
ENDBRANCH14531454
BRANCH14521466
ATOM   1466  O2' A   B  68      26.733 -10.096  -5.623  0.00  0.00    +0.000 OA
ATOM   1467  H   A   B  68      27.284  -9.300  -5.688  0.00  0.00    +0.000 HD
ENDBRANCH14521466
BRANCH14511468
ATOM   1468  O3' A   B  68      26.506 -10.150  -8.424  0.00  0.00    +0.000 OA
BRANCH14681469
ATOM   1469  P   A   B  69      25.978 -11.376  -9.288  0.00  0.00    +0.000 P 
ATOM   1470  OP1 A   B  69      27.092 -11.812 -10.160  0.00  0.00    +0.000 OA
BRANCH14691471
ATOM   1471  OP2 A   B  69      24.667 -11.018  -9.884  0.00  0.00    +0.000 OA
ATOM   1472  H   A   B  69      24.794 -10.329 -10.555  0.00  0.00    +0.000 HD
ENDBRANCH14691471
BRANCH14691473
ATOM   1473  O5' A   B  69      25.723 -12.507  -8.194  0.00  0.00    +0.000 OA
BRANCH14731474
ATOM   1474  C5' A   B  69      26.795 -13.004  -7.405  0.00  0.00    +0.000 C 
BRANCH14741475
ATOM   1475  C4' A   B  69      26.289 -13.805  -6.231  0.00  0.00    +0.000 C 
ATOM   1476  O4' A   B  69      25.438 -12.983  -5.395  0.00  0.00    +0.000 OA
ATOM   1477  C3' A   B  69      25.414 -14.997  -6.563  0.00  0.00    +0.000 C 
ATOM   1478  C2' A   B  69      24.698 -15.227  -5.244  0.00  0.00    +0.000 C 
ATOM   1479  C1' A   B  69      24.436 -13.787  -4.804  0.00  0.00    +0.000 C 
BRANCH14791480
ATOM   1480  N9  A   B  69      23.118 -13.315  -5.253  0.00  0.00    +0.000 N 
ATOM   1481  C8  A   B  69      22.818 -12.539  -6.344  0.00  0.00    +0.000 A 
ATOM   1482  N7  A   B  69      21.537 -12.300  -6.482  0.00  0.00    +0.000 NA
ATOM   1483  C5  A   B  69      20.954 -12.965  -5.411  0.00  0.00    +0.000 A 
ATOM   1484  C6  A   B  69      19.622 -13.099  -4.989  0.00  0.00    +0.000 A 
ATOM   1485  N1  A   B  69      19.386 -13.828  -3.879  0.00  0.00    +0.000 NA
ATOM   1486  C2  A   B  69      20.423 -14.385  -3.242  0.00  0.00    +0.000 A 
ATOM   1487  N3  A   B  69      21.716 -14.327  -3.540  0.00  0.00    +0.000 NA
ATOM   1488  C4  A   B  69      21.916 -13.593  -4.649  0.00  0.00    +0.000 A 
BRANCH14841489
ATOM   1489  N6  A   B  69      18.585 -12.548  -5.634  0.00  0.00    +0.000 N 
ATOM   1490  H   A   B  69      18.738 -12.013  -6.446  0.00  0.00    +0.000 HD
ATOM   1491  H   A   B  69      17.670 -12.678  -5.296  0.00  0.00    +0.000 HD
ENDBRANCH14841489
ENDBRANCH14791480
BRANCH14781492
ATOM   1492  O2' A   B  69      25.526 -15.864  -4.292  0.00  0.00    +0.000 OA
ATOM   1493  H   A   B  69      26.333 -15.341  -4.164  0.00  0.00    +0.000 HD
ENDBRANCH14781492
BRANCH14771494
ATOM   1494  O3' A   B  69      26.157 -16.123  -7.005  0.00  0.00    +0.000 OA
BRANCH14941495
ATOM   1495  P   A   B  70      25.486 -17.163  -8.009  0.00  0.00    +0.000 P 
ATOM   1496  OP2 A   B  70      24.694 -16.420  -9.021  0.00  0.00    +0.000 OA
BRANCH14951497
ATOM   1497  OP1 A   B  70      26.548 -18.097  -8.441  0.00  0.00    +0.000 OA
ATOM   1498  H   A   B  70      26.175 -18.748  -9.056  0.00  0.00    +0.000 HD
ENDBRANCH14951497
BRANCH14951499
ATOM   1499  O5' A   B  70      24.465 -17.964  -7.081  0.00  0.00    +0.000 OA
BRANCH14991500
ATOM   1500  C5' A   B  70      24.940 -18.731  -5.981  0.00  0.00    +0.000 C 
BRANCH15001501
ATOM   1501  C4' A   B  70      23.800 -19.195  -5.112  0.00  0.00    +0.000 C 
ATOM   1502  O4' A   B  70      23.083 -18.055  -4.578  0.00  0.00    +0.000 OA
ATOM   1503  C3' A   B  70      22.721 -20.001  -5.809  0.00  0.00    +0.000 C 
ATOM   1504  C2' A   B  70      21.549 -19.836  -4.861  0.00  0.00    +0.000 C 
ATOM   1505  C1' A   B  70      21.714 -18.375  -4.441  0.00  0.00    +0.000 C 
BRANCH15051506
ATOM   1506  N9  A   B  70      20.927 -17.468  -5.289  0.00  0.00    +0.000 N 
ATOM   1507  C8  A   B  70      21.357 -16.694  -6.335  0.00  0.00    +0.000 A 
ATOM   1508  N7  A   B  70      20.403 -15.994  -6.900  0.00  0.00    +0.000 NA
ATOM   1509  C5  A   B  70      19.268 -16.330  -6.176  0.00  0.00    +0.000 A 
ATOM   1510  C6  A   B  70      17.928 -15.927  -6.273  0.00  0.00    +0.000 A 
ATOM   1511  N1  A   B  70      17.051 -16.451  -5.399  0.00  0.00    +0.000 NA
ATOM   1512  C2  A   B  70      17.496 -17.323  -4.488  0.00  0.00    +0.000 A 
ATOM   1513  N3  A   B  70      18.728 -17.778  -4.296  0.00  0.00    +0.000 NA
ATOM   1514  C4  A   B  70      19.577 -17.236  -5.182  0.00  0.00    +0.000 A 
BRANCH15101515
ATOM   1515  N6  A   B  70      17.483 -15.055  -7.191  0.00  0.00    +0.000 N 
ATOM   1516  H   A   B  70      18.110 -14.660  -7.840  0.00  0.00    +0.000 HD
ATOM   1517  H   A   B  70      16.530 -14.810  -7.216  0.00  0.00    +0.000 HD
ENDBRANCH15101515
ENDBRANCH15051506
BRANCH15041518
ATOM   1518  O2' A   B  70      21.664 -20.665  -3.721  0.00  0.00    +0.000 OA
ATOM   1519  H   A   B  70      22.503 -20.480  -3.270  0.00  0.00    +0.000 HD
ENDBRANCH15041518
BRANCH15031520
ATOM   1520  O3' A   B  70      23.096 -21.355  -6.015  0.00  0.00    +0.000 OA
BRANCH15201521
ATOM   1521  P   U   B  71      22.602 -22.129  -7.324  0.00  0.00    +0.000 P 
ATOM   1522  OP2 U   B  71      22.691 -21.203  -8.482  0.00  0.00    +0.000 OA
BRANCH15211523
ATOM   1523  OP1 U   B  71      23.307 -23.428  -7.360  0.00  0.00    +0.000 OA
ATOM   1524  H   U   B  71      23.029 -23.925  -8.145  0.00  0.00    +0.000 HD
ENDBRANCH15211523
BRANCH15211525
ATOM   1525  O5' U   B  71      21.060 -22.404  -7.028  0.00  0.00    +0.000 OA
BRANCH15251526
ATOM   1526  C5' U   B  71      20.659 -23.199  -5.923  0.00  0.00    +0.000 C 
BRANCH15261527
ATOM   1527  C4' U   B  71      19.174 -23.089  -5.685  0.00  0.00    +0.000 C 
ATOM   1528  O4' U   B  71      18.825 -21.721  -5.355  0.00  0.00    +0.000 OA
ATOM   1529  C3' U   B  71      18.291 -23.414  -6.870  0.00  0.00    +0.000 C 
ATOM   1530  C2' U   B  71      16.998 -22.706  -6.499  0.00  0.00    +0.000 C 
ATOM   1531  C1' U   B  71      17.533 -21.426  -5.849  0.00  0.00    +0.000 C 
BRANCH15311532
ATOM   1532  N1  U   B  71      17.634 -20.310  -6.812  0.00  0.00    +0.000 N 
ATOM   1533  C2  U   B  71      16.482 -19.587  -7.072  0.00  0.00    +0.000 A 
ATOM   1534  O2  U   B  71      15.413 -19.833  -6.540  0.00  0.00    +0.000 OA
ATOM   1535  N3  U   B  71      16.627 -18.565  -7.978  0.00  0.00    +0.000 N 
ATOM   1536  C4  U   B  71      17.781 -18.198  -8.639  0.00  0.00    +0.000 A 
ATOM   1537  O4  U   B  71      17.749 -17.255  -9.428  0.00  0.00    +0.000 OA
ATOM   1538  C5  U   B  71      18.926 -18.991  -8.318  0.00  0.00    +0.000 A 
ATOM   1539  C6  U   B  71      18.816 -19.993  -7.438  0.00  0.00    +0.000 A 
ATOM   1540  H   U   B  71      15.820 -18.037  -8.177  0.00  0.00    +0.000 HD
ENDBRANCH15311532
BRANCH15301541
ATOM   1541  O2' U   B  71      16.249 -23.431  -5.544  0.00  0.00    +0.000 OA
ATOM   1542  H   U   B  71      16.794 -23.589  -4.758  0.00  0.00    +0.000 HD
ENDBRANCH15301541
BRANCH15291543
ATOM   1543  O3' U   B  71      18.133 -24.811  -7.069  0.00  0.00    +0.000 OA
BRANCH15431544
ATOM   1544  P   C   B  72      17.956 -25.389  -8.547  0.00  0.00    +0.000 P 
ATOM   1545  OP2 C   B  72      18.836 -24.622  -9.467  0.00  0.00    +0.000 OA
BRANCH15441546
ATOM   1546  OP1 C   B  72      18.075 -26.863  -8.470  0.00  0.00    +0.000 OA
ATOM   1547  H   C   B  72      17.971 -27.243  -9.357  0.00  0.00    +0.000 HD
ENDBRANCH15441546
BRANCH15441548
ATOM   1548  O5' C   B  72      16.445 -25.030  -8.898  0.00  0.00    +0.000 OA
BRANCH15481549
ATOM   1549  C5' C   B  72      15.374 -25.546  -8.126  0.00  0.00    +0.000 C 
BRANCH15491550
ATOM   1550  C4' C   B  72      14.071 -24.887  -8.505  0.00  0.00    +0.000 C 
ATOM   1551  O4' C   B  72      14.142 -23.468  -8.230  0.00  0.00    +0.000 OA
ATOM   1552  C3' C   B  72      13.709 -24.966  -9.972  0.00  0.00    +0.000 C 
ATOM   1553  C2' C   B  72      12.765 -23.780 -10.139  0.00  0.00    +0.000 C 
ATOM   1554  C1' C   B  72      13.379 -22.755  -9.181  0.00  0.00    +0.000 C 
BRANCH15541555
ATOM   1555  N1  C   B  72      14.259 -21.777  -9.855  0.00  0.00    +0.000 N 
ATOM   1556  C2  C   B  72      13.675 -20.641 -10.425  0.00  0.00    +0.000 A 
ATOM   1557  O2  C   B  72      12.447 -20.492 -10.357  0.00  0.00    +0.000 OA
ATOM   1558  N3  C   B  72      14.471 -19.730 -11.039  0.00  0.00    +0.000 NA
ATOM   1559  C4  C   B  72      15.793 -19.918 -11.093  0.00  0.00    +0.000 A 
ATOM   1560  N4  C   B  72      16.535 -18.990 -11.708  0.00  0.00    +0.000 N 
ATOM   1561  C5  C   B  72      16.406 -21.066 -10.522  0.00  0.00    +0.000 A 
ATOM   1562  C6  C   B  72      15.613 -21.957  -9.918  0.00  0.00    +0.000 A 
ATOM   1563  H   C   B  72      16.104 -18.197 -12.102  0.00  0.00    +0.000 HD
ATOM   1564  H   C   B  72      17.512 -19.100 -11.767  0.00  0.00    +0.000 HD
ENDBRANCH15541555
BRANCH15531565
ATOM   1565  O2' C   B  72      11.454 -24.085  -9.707  0.00  0.00    +0.000 OA
ATOM   1566  H   C   B  72      11.478 -24.380  -8.783  0.00  0.00    +0.000 HD
ENDBRANCH15531565
BRANCH15521567
ATOM   1567  O3' C   B  72      13.104 -26.211 -10.293  0.00  0.00    +0.000 OA
BRANCH15671568
ATOM   1568  P   U   B  73      13.576 -27.038 -11.566  0.00  0.00    +0.000 P 
ATOM   1569  OP2 U   B  73      15.004 -26.733 -11.827  0.00  0.00    +0.000 OA
BRANCH15681570
ATOM   1570  OP1 U   B  73      13.146 -28.441 -11.385  0.00  0.00    +0.000 OA
ATOM   1571  H   U   B  73      13.424 -28.966 -12.152  0.00  0.00    +0.000 HD
ENDBRANCH15681570
BRANCH15681572
ATOM   1572  O5' U   B  73      12.725 -26.404 -12.752  0.00  0.00    +0.000 OA
BRANCH15721573
ATOM   1573  C5' U   B  73      11.308 -26.392 -12.697  0.00  0.00    +0.000 C 
BRANCH15731574
ATOM   1574  C4' U   B  73      10.758 -25.532 -13.815  0.00  0.00    +0.000 C 
ATOM   1575  O4' U   B  73      11.206 -24.176 -13.590  0.00  0.00    +0.000 OA
ATOM   1576  C3' U   B  73      11.231 -25.936 -15.202  0.00  0.00    +0.000 C 
ATOM   1577  C2' U   B  73      11.825 -24.679 -15.830  0.00  0.00    +0.000 C 
ATOM   1578  C1' U   B  73      11.516 -23.572 -14.819  0.00  0.00    +0.000 C 
BRANCH15781579
ATOM   1579  N1  U   B  73      12.663 -22.676 -14.599  0.00  0.00    +0.000 N 
ATOM   1580  C2  U   B  73      12.509 -21.346 -14.946  0.00  0.00    +0.000 A 
ATOM   1581  O2  U   B  73      11.474 -20.896 -15.406  0.00  0.00    +0.000 OA
ATOM   1582  N3  U   B  73      13.614 -20.559 -14.728  0.00  0.00    +0.000 N 
ATOM   1583  C4  U   B  73      14.832 -20.960 -14.214  0.00  0.00    +0.000 A 
ATOM   1584  O4  U   B  73      15.730 -20.136 -14.083  0.00  0.00    +0.000 OA
ATOM   1585  C5  U   B  73      14.913 -22.352 -13.888  0.00  0.00    +0.000 A 
ATOM   1586  C6  U   B  73      13.853 -23.144 -14.090  0.00  0.00    +0.000 A 
ATOM   1587  H   U   B  73      13.529 -19.607 -14.963  0.00  0.00    +0.000 HD
ENDBRANCH15781579
BRANCH15771588
ATOM   1588  O2' U   B  73      11.260 -24.335 -17.085  0.00  0.00    +0.000 OA
ATOM   1589  H   U   B  73      10.308 -24.184 -16.980  0.00  0.00    +0.000 HD
ENDBRANCH15771588
BRANCH15761590
ATOM   1590  O3' U   B  73      10.142 -26.431 -15.983  0.00  0.00    +0.000 OA
BRANCH15901591
ATOM   1591  P   C   B  74       9.578 -27.819 -15.756  0.00  0.00    +0.000 P 
ATOM   1592  OP2 C   B  74      10.646 -28.757 -15.319  0.00  0.00    +0.000 OA
BRANCH15911593
ATOM   1593  OP1 C   B  74       8.358 -27.676 -14.937  0.00  0.00    +0.000 OA
ATOM   1594  H   C   B  74       7.763 -27.032 -15.353  0.00  0.00    +0.000 HD
ENDBRANCH15911593
BRANCH15911595
ATOM   1595  O5' C   B  74       9.169 -28.215 -17.234  0.00  0.00    +0.000 OA
BRANCH15951596
ATOM   1596  C5' C   B  74       8.466 -27.267 -18.042  0.00  0.00    +0.000 C 
BRANCH15961597
ATOM   1597  C4' C   B  74       7.353 -27.964 -18.782  0.00  0.00    +0.000 C 
ATOM   1598  O4' C   B  74       7.945 -29.010 -19.579  0.00  0.00    +0.000 OA
ATOM   1599  C3' C   B  74       6.322 -28.637 -17.878  0.00  0.00    +0.000 C 
ATOM   1600  C2' C   B  74       6.103 -30.031 -18.438  0.00  0.00    +0.000 C 
ATOM   1601  C1' C   B  74       7.130 -30.162 -19.554  0.00  0.00    +0.000 C 
BRANCH16011602
ATOM   1602  N1  C   B  74       7.998 -31.340 -19.379  0.00  0.00    +0.000 N 
ATOM   1603  C2  C   B  74       7.602 -32.566 -19.923  0.00  0.00    +0.000 A 
ATOM   1604  O2  C   B  74       6.528 -32.634 -20.538  0.00  0.00    +0.000 OA
ATOM   1605  N3  C   B  74       8.401 -33.650 -19.759  0.00  0.00    +0.000 NA
ATOM   1606  C4  C   B  74       9.551 -33.541 -19.090  0.00  0.00    +0.000 A 
ATOM   1607  N4  C   B  74      10.305 -34.629 -18.960  0.00  0.00    +0.000 N 
ATOM   1608  C5  C   B  74       9.975 -32.307 -18.529  0.00  0.00    +0.000 A 
ATOM   1609  C6  C   B  74       9.178 -31.244 -18.694  0.00  0.00    +0.000 A 
ATOM   1610  H   C   B  74      10.008 -35.483 -19.350  0.00  0.00    +0.000 HD
ATOM   1611  H   C   B  74      11.160 -34.580 -18.474  0.00  0.00    +0.000 HD
ENDBRANCH16011602
BRANCH16001612
ATOM   1612  O2' C   B  74       4.817 -30.234 -18.977  0.00  0.00    +0.000 OA
ATOM   1613  H   C   B  74       4.666 -29.604 -19.699  0.00  0.00    +0.000 HD
ENDBRANCH16001612
BRANCH15991614
ATOM   1614  O3' C   B  74       5.100 -27.896 -17.862  0.00  0.00    +0.000 OA
BRANCH16141615
ATOM   1615  P   C   B  75       4.122 -28.091 -16.671  0.00  0.00    +0.000 P 
ATOM   1616  OP2 C   B  75       2.760 -28.007 -17.215  0.00  0.00    +0.000 OA
BRANCH16151617
ATOM   1617  OP1 C   B  75       4.514 -29.282 -15.877  0.00  0.00    +0.000 OA
ATOM   1618  H   C   B  75       4.352 -30.085 -16.397  0.00  0.00    +0.000 HD
ENDBRANCH16151617
BRANCH16151619
ATOM   1619  O5' C   B  75       4.389 -26.794 -15.816  0.00  0.00    +0.000 OA
BRANCH16191620
ATOM   1620  C5' C   B  75       4.002 -25.504 -16.298  0.00  0.00    +0.000 C 
BRANCH16201621
ATOM   1621  C4' C   B  75       3.278 -24.764 -15.210  0.00  0.00    +0.000 C 
ATOM   1622  O4' C   B  75       4.082 -24.757 -14.018  0.00  0.00    +0.000 OA
ATOM   1623  C3' C   B  75       2.972 -23.297 -15.475  0.00  0.00    +0.000 C 
ATOM   1624  C2' C   B  75       2.906 -22.684 -14.077  0.00  0.00    +0.000 C 
ATOM   1625  C1' C   B  75       3.772 -23.630 -13.235  0.00  0.00    +0.000 C 
BRANCH16251626
ATOM   1626  N1  C   B  75       5.013 -23.032 -12.720  0.00  0.00    +0.000 N 
ATOM   1627  C2  C   B  75       5.012 -22.556 -11.407  0.00  0.00    +0.000 A 
ATOM   1628  O2  C   B  75       3.980 -22.639 -10.731  0.00  0.00    +0.000 OA
ATOM   1629  N3  C   B  75       6.147 -22.013 -10.903  0.00  0.00    +0.000 NA
ATOM   1630  C4  C   B  75       7.241 -21.942 -11.661  0.00  0.00    +0.000 A 
ATOM   1631  N4  C   B  75       8.331 -21.401 -11.121  0.00  0.00    +0.000 N 
ATOM   1632  C5  C   B  75       7.258 -22.419 -13.001  0.00  0.00    +0.000 A 
ATOM   1633  C6  C   B  75       6.131 -22.954 -13.487  0.00  0.00    +0.000 A 
ATOM   1634  H   C   B  75       9.159 -21.331 -11.649  0.00  0.00    +0.000 HD
ATOM   1635  H   C   B  75       8.309 -21.071 -10.194  0.00  0.00    +0.000 HD
ENDBRANCH16251626
BRANCH16241636
ATOM   1636  O2' C   B  75       1.593 -22.701 -13.560  0.00  0.00    +0.000 OA
ATOM   1637  H   C   B  75       1.264 -23.613 -13.543  0.00  0.00    +0.000 HD
ENDBRANCH16241636
BRANCH16231638
ATOM   1638  O3' C   B  75       1.726 -23.175 -16.160  0.00  0.00    +0.000 OA
BRANCH16381639
ATOM   1639  P   A   B  76       1.517 -22.030 -17.244  0.00  0.00    +0.000 P 
ATOM   1640  OP2 A   B  76       2.755 -21.913 -18.050  0.00  0.00    +0.000 OA
BRANCH16391641
ATOM   1641  OP1 A   B  76       0.215 -22.284 -17.913  0.00  0.00    +0.000 OA
ATOM   1642  H   A   B  76       0.057 -21.600 -18.583  0.00  0.00    +0.000 HD
ENDBRANCH16391641
BRANCH16391643
ATOM   1643  O5' A   B  76       1.362 -20.706 -16.374  0.00  0.00    +0.000 OA
BRANCH16431644
ATOM   1644  C5' A   B  76       0.163 -20.428 -15.653  0.00  0.00    +0.000 C 
BRANCH16441645
ATOM   1645  C4' A   B  76       0.098 -18.966 -15.283  0.00  0.00    +0.000 C 
ATOM   1646  O4' A   B  76       1.245 -18.629 -14.469  0.00  0.00    +0.000 OA
ATOM   1647  C3' A   B  76       0.169 -18.003 -16.461  0.00  0.00    +0.000 C 
ATOM   1648  C2' A   B  76       0.742 -16.746 -15.820  0.00  0.00    +0.000 C 
ATOM   1649  C1' A   B  76       1.729 -17.351 -14.817  0.00  0.00    +0.000 C 
BRANCH16491650
ATOM   1650  N9  A   B  76       3.082 -17.501 -15.365  0.00  0.00    +0.000 N 
ATOM   1651  C8  A   B  76       3.755 -18.669 -15.610  0.00  0.00    +0.000 A 
ATOM   1652  N7  A   B  76       4.955 -18.494 -16.112  0.00  0.00    +0.000 NA
ATOM   1653  C5  A   B  76       5.077 -17.118 -16.204  0.00  0.00    +0.000 A 
ATOM   1654  C6  A   B  76       6.115 -16.289 -16.659  0.00  0.00    +0.000 A 
ATOM   1655  N1  A   B  76       5.914 -14.953 -16.614  0.00  0.00    +0.000 NA
ATOM   1656  C2  A   B  76       4.751 -14.490 -16.141  0.00  0.00    +0.000 A 
ATOM   1657  N3  A   B  76       3.706 -15.172 -15.685  0.00  0.00    +0.000 NA
ATOM   1658  C4  A   B  76       3.936 -16.494 -15.745  0.00  0.00    +0.000 A 
BRANCH16541659
ATOM   1659  N6  A   B  76       7.279 -16.756 -17.126  0.00  0.00    +0.000 N 
ATOM   1660  H   A   B  76       7.973 -16.129 -17.433  0.00  0.00    +0.000 HD
ATOM   1661  H   A   B  76       7.441 -17.726 -17.163  0.00  0.00    +0.000 HD
ENDBRANCH16541659
ENDBRANCH16491650
BRANCH16481662
ATOM   1662  O2' A   B  76      -0.237 -16.004 -15.135  0.00  0.00    +0.000 OA
ATOM   1663  H   A   B  76      -0.663 -16.567 -14.470  0.00  0.00    +0.000 HD
ENDBRANCH16481662
BRANCH16471664
ATOM   1664  O3' A   B  76      -1.105 -17.803 -17.065  0.00  0.00    +0.000 OA
ATOM   1665  H   A   B  76      -1.731 -17.478 -16.399  0.00  0.00    +0.000 HD
ENDBRANCH16471664
ENDBRANCH16441645
ENDBRANCH16431644
ENDBRANCH16391643
ENDBRANCH16381639
ENDBRANCH16231638
ENDBRANCH16201621
ENDBRANCH16191620
ENDBRANCH16151619
ENDBRANCH16141615
ENDBRANCH15991614
ENDBRANCH15961597
ENDBRANCH15951596
ENDBRANCH15911595
ENDBRANCH15901591
ENDBRANCH15761590
ENDBRANCH15731574
ENDBRANCH15721573
ENDBRANCH15681572
ENDBRANCH15671568
ENDBRANCH15521567
ENDBRANCH15491550
ENDBRANCH15481549
ENDBRANCH15441548
ENDBRANCH15431544
ENDBRANCH15291543
ENDBRANCH15261527
ENDBRANCH15251526
ENDBRANCH15211525
ENDBRANCH15201521
ENDBRANCH15031520
ENDBRANCH15001501
ENDBRANCH14991500
ENDBRANCH14951499
ENDBRANCH14941495
ENDBRANCH14771494
ENDBRANCH14741475
ENDBRANCH14731474
ENDBRANCH14691473
ENDBRANCH14681469
ENDBRANCH14511468
ENDBRANCH14481449
ENDBRANCH14471448
ENDBRANCH14431447
ENDBRANCH14421443
ENDBRANCH14251442
ENDBRANCH14221423
ENDBRANCH14211422
ENDBRANCH14171421
ENDBRANCH14161417
ENDBRANCH13991416
ENDBRANCH13961397
ENDBRANCH13951396
ENDBRANCH13911395
ENDBRANCH13901391
ENDBRANCH13751390
ENDBRANCH13721373
ENDBRANCH13711372
ENDBRANCH13671371
ENDBRANCH13661367
ENDBRANCH13491366
ENDBRANCH13461347
ENDBRANCH13451346
ENDBRANCH13411345
ENDBRANCH13401341
ENDBRANCH 5521340
BRANCH   11666
ATOM   1666  C5' A   B   9      13.251  10.288   6.199  0.00  0.00    +0.000 C 
BRANCH16661667
ATOM   1667  O5' A   B   9      12.109   9.726   5.554  0.00  0.00    +0.000 OA
BRANCH16671668
ATOM   1668  P   A   B   9      11.763   8.173   5.675  0.00  0.00    +0.000 P 
ATOM   1669  OP2 A   B   9      10.278   8.048   5.671  0.00  0.00    +0.000 OA
BRANCH16681670
ATOM   1670  OP1 A   B   9      12.541   7.594   6.789  0.00  0.00    +0.000 OA
ATOM   1671  H   A   B   9      13.486   7.759   6.644  0.00  0.00    +0.000 HD
ENDBRANCH16681670
BRANCH16681672
ATOM   1672  O3' U   B   8      12.278   7.586   4.298  0.00  0.00    +0.000 OA
BRANCH16721675
ATOM   1673  C4' U   B   8      13.782   6.179   3.008  0.00  0.00    +0.000 C 
ATOM   1674  O4' U   B   8      13.872   4.746   2.794  0.00  0.00    +0.000 OA
ATOM   1675  C3' U   B   8      12.897   6.316   4.229  0.00  0.00    +0.000 C 
ATOM   1676  C2' U   B   8      11.902   5.177   4.046  0.00  0.00    +0.000 C 
ATOM   1677  C1' U   B   8      12.791   4.093   3.431  0.00  0.00    +0.000 C 
BRANCH16771678
ATOM   1678  N1  U   B   8      13.322   3.150   4.438  0.00  0.00    +0.000 N 
ATOM   1679  C2  U   B   8      12.527   2.068   4.786  0.00  0.00    +0.000 A 
ATOM   1680  O2  U   B   8      11.429   1.875   4.301  0.00  0.00    +0.000 OA
ATOM   1681  N3  U   B   8      13.072   1.226   5.728  0.00  0.00    +0.000 N 
ATOM   1682  C4  U   B   8      14.302   1.349   6.341  0.00  0.00    +0.000 A 
ATOM   1683  O4  U   B   8      14.652   0.504   7.170  0.00  0.00    +0.000 OA
ATOM   1684  C5  U   B   8      15.063   2.489   5.925  0.00  0.00    +0.000 A 
ATOM   1685  C6  U   B   8      14.559   3.327   5.010  0.00  0.00    +0.000 A 
ATOM   1686  H   U   B   8      12.525   0.452   5.993  0.00  0.00    +0.000 HD
ENDBRANCH16771678
BRANCH16761687
ATOM   1687  O2' U   B   8      10.883   5.513   3.137  0.00  0.00    +0.000 OA
ATOM   1688  H   U   B   8      11.278   5.770   2.289  0.00  0.00    +0.000 HD
ENDBRANCH16761687
BRANCH16731689
ATOM   1689  C5' U   B   8      15.172   6.757   3.135  0.00  0.00    +0.000 C 
BRANCH16891690
ATOM   1690  O5' U   B   8      15.870   6.158   4.219  0.00  0.00    +0.000 OA
BRANCH16901691
ATOM   1691  P   U   B   8      17.461   6.251   4.332  0.00  0.00    +0.000 P 
ATOM   1692  OP1 U   B   8      17.851   7.673   4.253  0.00  0.00    +0.000 OA
BRANCH16911693
ATOM   1693  OP2 U   B   8      17.881   5.431   5.496  0.00  0.00    +0.000 OA
ATOM   1694  H   U   B   8      17.545   4.527   5.393  0.00  0.00    +0.000 HD
ENDBRANCH16911693
BRANCH16911695
ATOM   1695  O3' C   B   7      17.967   5.521   2.993  0.00  0.00    +0.000 OA
BRANCH16951698
ATOM   1696  C4' C   B   7      19.125   3.507   2.238  0.00  0.00    +0.000 C 
ATOM   1697  O4' C   B   7      18.679   2.243   1.684  0.00  0.00    +0.000 OA
ATOM   1698  C3' C   B   7      17.871   4.112   2.838  0.00  0.00    +0.000 C 
ATOM   1699  C2' C   B   7      16.802   3.689   1.835  0.00  0.00    +0.000 C 
ATOM   1700  C1' C   B   7      17.279   2.285   1.454  0.00  0.00    +0.000 C 
BRANCH17001701
ATOM   1701  N1  C   B   7      16.630   1.227   2.257  0.00  0.00    +0.000 N 
ATOM   1702  C2  C   B   7      15.339   0.812   1.904  0.00  0.00    +0.000 A 
ATOM   1703  O2  C   B   7      14.778   1.346   0.935  0.00  0.00    +0.000 OA
ATOM   1704  N3  C   B   7      14.735  -0.160   2.631  0.00  0.00    +0.000 NA
ATOM   1705  C4  C   B   7      15.368  -0.715   3.669  0.00  0.00    +0.000 A 
ATOM   1706  N4  C   B   7      14.726  -1.670   4.351  0.00  0.00    +0.000 N 
ATOM   1707  C5  C   B   7      16.679  -0.312   4.047  0.00  0.00    +0.000 A 
ATOM   1708  C6  C   B   7      17.269   0.646   3.321  0.00  0.00    +0.000 A 
ATOM   1709  H   C   B   7      13.819  -1.942   4.082  0.00  0.00    +0.000 HD
ATOM   1710  H   C   B   7      15.161  -2.101   5.122  0.00  0.00    +0.000 HD
ENDBRANCH17001701
BRANCH16991711
ATOM   1711  O2' C   B   7      16.806   4.504   0.685  0.00  0.00    +0.000 OA
ATOM   1712  H   C   B   7      17.687   4.487   0.280  0.00  0.00    +0.000 HD
ENDBRANCH16991711
BRANCH16961713
ATOM   1713  C5' C   B   7      20.264   3.271   3.200  0.00  0.00    +0.000 C 
BRANCH17131714
ATOM   1714  O5' C   B   7      19.866   2.409   4.254  0.00  0.00    +0.000 OA
BRANCH17141715
ATOM   1715  P   C   B   7      20.939   1.761   5.237  0.00  0.00    +0.000 P 
ATOM   1716  OP1 C   B   7      21.798   2.846   5.761  0.00  0.00    +0.000 OA
BRANCH17151717
ATOM   1717  OP2 C   B   7      20.219   0.870   6.180  0.00  0.00    +0.000 OA
ATOM   1718  H   C   B   7      19.704   0.218   5.679  0.00  0.00    +0.000 HD
ENDBRANCH17151717
BRANCH17151719
ATOM   1719  O3' A   B   6      21.840   0.855   4.258  0.00  0.00    +0.000 OA
BRANCH17191722
ATOM   1720  C4' A   B   6      22.411  -1.424   3.571  0.00  0.00    +0.000 C 
ATOM   1721  O4' A   B   6      21.840  -2.350   2.617  0.00  0.00    +0.000 OA
ATOM   1722  C3' A   B   6      21.330  -0.369   3.748  0.00  0.00    +0.000 C 
ATOM   1723  C2' A   B   6      20.779  -0.247   2.336  0.00  0.00    +0.000 C 
ATOM   1724  C1' A   B   6      20.821  -1.703   1.873  0.00  0.00    +0.000 C 
BRANCH17241725
ATOM   1725  N9  A   B   6      19.549  -2.397   2.116  0.00  0.00    +0.000 N 
ATOM   1726  C8  A   B   6      19.263  -3.321   3.086  0.00  0.00    +0.000 A 
ATOM   1727  N7  A   B   6      18.031  -3.761   3.047  0.00  0.00    +0.000 NA
ATOM   1728  C5  A   B   6      17.467  -3.080   1.979  0.00  0.00    +0.000 A 
ATOM   1729  C6  A   B   6      16.180  -3.100   1.413  0.00  0.00    +0.000 A 
ATOM   1730  N6  A   B   6      15.182  -3.867   1.870  0.00  0.00    +0.000 N 
ATOM   1731  N1  A   B   6      15.949  -2.297   0.353  0.00  0.00    +0.000 NA
ATOM   1732  C2  A   B   6      16.946  -1.532  -0.103  0.00  0.00    +0.000 A 
ATOM   1733  N3  A   B   6      18.193  -1.427   0.341  0.00  0.00    +0.000 NA
ATOM   1734  C4  A   B   6      18.390  -2.238   1.395  0.00  0.00    +0.000 A 
ATOM   1735  H   A   B   6      14.300  -3.839   1.433  0.00  0.00    +0.000 HD
ATOM   1736  H   A   B   6      15.330  -4.458   2.643  0.00  0.00    +0.000 HD
ENDBRANCH17241725
BRANCH17231737
ATOM   1737  O2' A   B   6      21.615   0.531   1.502  0.00  0.00    +0.000 OA
ATOM   1738  H   A   B   6      22.507   0.150   1.493  0.00  0.00    +0.000 HD
ENDBRANCH17231737
BRANCH17201739
ATOM   1739  C5' A   B   6      22.817  -2.163   4.824  0.00  0.00    +0.000 C 
BRANCH17391740
ATOM   1740  O5' A   B   6      21.700  -2.794   5.431  0.00  0.00    +0.000 OA
BRANCH17401741
ATOM   1741  P   A   B   6      21.885  -3.740   6.701  0.00  0.00    +0.000 P 
ATOM   1742  OP2 A   B   6      20.539  -4.195   7.128  0.00  0.00    +0.000 OA
BRANCH17411743
ATOM   1743  OP1 A   B   6      22.774  -3.049   7.666  0.00  0.00    +0.000 OA
ATOM   1744  H   A   B   6      23.609  -2.820   7.229  0.00  0.00    +0.000 HD
ENDBRANCH17411743
BRANCH17411745
ATOM   1745  O3' U   B   5      22.684  -5.005   6.122  0.00  0.00    +0.000 OA
BRANCH17451748
ATOM   1746  C4' U   B   5      22.553  -7.317   5.318  0.00  0.00    +0.000 C 
ATOM   1747  O4' U   B   5      22.158  -7.917   4.056  0.00  0.00    +0.000 OA
ATOM   1748  C3' U   B   5      22.046  -5.895   5.217  0.00  0.00    +0.000 C 
ATOM   1749  C2' U   B   5      22.329  -5.570   3.755  0.00  0.00    +0.000 C 
ATOM   1750  C1' U   B   5      21.974  -6.903   3.084  0.00  0.00    +0.000 C 
BRANCH17501751
ATOM   1751  N1  U   B   5      20.572  -6.924   2.620  0.00  0.00    +0.000 N 
ATOM   1752  C2  U   B   5      20.300  -6.332   1.397  0.00  0.00    +0.000 A 
ATOM   1753  O2  U   B   5      21.164  -5.815   0.705  0.00  0.00    +0.000 OA
ATOM   1754  N3  U   B   5      18.983  -6.365   1.009  0.00  0.00    +0.000 N 
ATOM   1755  C4  U   B   5      17.930  -6.920   1.708  0.00  0.00    +0.000 A 
ATOM   1756  O4  U   B   5      16.797  -6.870   1.229  0.00  0.00    +0.000 OA
ATOM   1757  C5  U   B   5      18.290  -7.511   2.963  0.00  0.00    +0.000 A 
ATOM   1758  C6  U   B   5      19.567  -7.492   3.363  0.00  0.00    +0.000 A 
ATOM   1759  H   U   B   5      18.768  -5.950   0.143  0.00  0.00    +0.000 HD
ENDBRANCH17501751
BRANCH17491760
ATOM   1760  O2' U   B   5      23.696  -5.283   3.526  0.00  0.00    +0.000 OA
ATOM   1761  H   U   B   5      24.238  -6.030   3.826  0.00  0.00    +0.000 HD
ENDBRANCH17491760
BRANCH17461762
ATOM   1762  C5' U   B   5      22.016  -8.134   6.469  0.00  0.00    +0.000 C 
BRANCH17621763
ATOM   1763  O5' U   B   5      20.603  -8.240   6.415  0.00  0.00    +0.000 OA
BRANCH17631764
ATOM   1764  P   U   B   5      19.826  -9.312   7.307  0.00  0.00    +0.000 P 
ATOM   1765  OP2 U   B   5      18.374  -9.177   7.024  0.00  0.00    +0.000 OA
BRANCH17641766
ATOM   1766  OP1 U   B   5      20.318  -9.203   8.698  0.00  0.00    +0.000 OA
ATOM   1767  H   U   B   5      21.282  -9.314   8.710  0.00  0.00    +0.000 HD
ENDBRANCH17641766
BRANCH17641768
ATOM   1768  O3' A   B   4      20.335 -10.721   6.724  0.00  0.00    +0.000 OA
BRANCH17681771
ATOM   1769  C4' A   B   4      19.773 -12.737   5.456  0.00  0.00    +0.000 C 
ATOM   1770  O4' A   B   4      19.699 -13.039   4.040  0.00  0.00    +0.000 OA
ATOM   1771  C3' A   B   4      19.804 -11.222   5.505  0.00  0.00    +0.000 C 
ATOM   1772  C2' A   B   4      20.655 -10.889   4.290  0.00  0.00    +0.000 C 
ATOM   1773  C1' A   B   4      20.159 -11.934   3.291  0.00  0.00    +0.000 C 
BRANCH17731774
ATOM   1774  N9  A   B   4      19.045 -11.424   2.478  0.00  0.00    +0.000 N 
ATOM   1775  C8  A   B   4      17.701 -11.592   2.687  0.00  0.00    +0.000 A 
ATOM   1776  N7  A   B   4      16.953 -11.007   1.785  0.00  0.00    +0.000 NA
ATOM   1777  C5  A   B   4      17.865 -10.411   0.927  0.00  0.00    +0.000 A 
ATOM   1778  C6  A   B   4      17.709  -9.639  -0.235  0.00  0.00    +0.000 A 
ATOM   1779  N1  A   B   4      18.824  -9.202  -0.852  0.00  0.00    +0.000 NA
ATOM   1780  C2  A   B   4      20.011  -9.520  -0.332  0.00  0.00    +0.000 A 
ATOM   1781  N3  A   B   4      20.286 -10.238   0.752  0.00  0.00    +0.000 NA
ATOM   1782  C4  A   B   4      19.155 -10.660   1.343  0.00  0.00    +0.000 A 
BRANCH17781783
ATOM   1783  N6  A   B   4      16.513  -9.315  -0.749  0.00  0.00    +0.000 N 
ATOM   1784  H   A   B   4      16.460  -8.770  -1.567  0.00  0.00    +0.000 HD
ATOM   1785  H   A   B   4      15.688  -9.622  -0.308  0.00  0.00    +0.000 HD
ENDBRANCH17781783
ENDBRANCH17731774
BRANCH17721786
ATOM   1786  O2' A   B   4      22.035 -11.099   4.531  0.00  0.00    +0.000 OA
ATOM   1787  H   A   B   4      22.178 -12.016   4.815  0.00  0.00    +0.000 HD
ENDBRANCH17721786
BRANCH17691788
ATOM   1788  C5' A   B   4      18.622 -13.394   6.181  0.00  0.00    +0.000 C 
BRANCH17881789
ATOM   1789  O5' A   B   4      17.374 -12.935   5.680  0.00  0.00    +0.000 OA
BRANCH17891790
ATOM   1790  P   A   B   4      16.018 -13.696   6.046  0.00  0.00    +0.000 P 
ATOM   1791  OP2 A   B   4      14.904 -12.995   5.359  0.00  0.00    +0.000 OA
BRANCH17901792
ATOM   1792  OP1 A   B   4      15.973 -13.891   7.514  0.00  0.00    +0.000 OA
ATOM   1793  H   A   B   4      15.154 -14.353   7.754  0.00  0.00    +0.000 HD
ENDBRANCH17901792
BRANCH17901794
ATOM   1794  O3' A   B   3      16.214 -15.136   5.370  0.00  0.00    +0.000 OA
BRANCH17941797
ATOM   1795  C4' A   B   3      15.579 -16.673   3.582  0.00  0.00    +0.000 C 
ATOM   1796  O4' A   B   3      15.965 -16.805   2.189  0.00  0.00    +0.000 OA
ATOM   1797  C3' A   B   3      16.069 -15.293   3.966  0.00  0.00    +0.000 C 
ATOM   1798  C2' A   B   3      17.383 -15.203   3.204  0.00  0.00    +0.000 C 
ATOM   1799  C1' A   B   3      17.019 -15.911   1.899  0.00  0.00    +0.000 C 
BRANCH17991800
ATOM   1800  N9  A   B   3      16.567 -14.970   0.863  0.00  0.00    +0.000 N 
ATOM   1801  C8  A   B   3      15.284 -14.626   0.534  0.00  0.00    +0.000 A 
ATOM   1802  N7  A   B   3      15.206 -13.755  -0.440  0.00  0.00    +0.000 NA
ATOM   1803  C5  A   B   3      16.529 -13.505  -0.775  0.00  0.00    +0.000 A 
ATOM   1804  C6  A   B   3      17.124 -12.672  -1.738  0.00  0.00    +0.000 A 
ATOM   1805  N1  A   B   3      18.471 -12.663  -1.811  0.00  0.00    +0.000 NA
ATOM   1806  C2  A   B   3      19.165 -13.436  -0.969  0.00  0.00    +0.000 A 
ATOM   1807  N3  A   B   3      18.718 -14.259  -0.026  0.00  0.00    +0.000 NA
ATOM   1808  C4  A   B   3      17.376 -14.248   0.019  0.00  0.00    +0.000 A 
BRANCH18041809
ATOM   1809  N6  A   B   3      16.425 -11.896  -2.575  0.00  0.00    +0.000 N 
ATOM   1810  H   A   B   3      16.894 -11.331  -3.231  0.00  0.00    +0.000 HD
ATOM   1811  H   A   B   3      15.441 -11.890  -2.535  0.00  0.00    +0.000 HD
ENDBRANCH18041809
ENDBRANCH17991800
BRANCH17981812
ATOM   1812  O2' A   B   3      18.418 -15.926   3.847  0.00  0.00    +0.000 OA
ATOM   1813  H   A   B   3      18.144 -16.849   3.963  0.00  0.00    +0.000 HD
ENDBRANCH17981812
BRANCH17951814
ATOM   1814  C5' A   B   3      14.097 -16.912   3.728  0.00  0.00    +0.000 C 
BRANCH18141815
ATOM   1815  O5' A   B   3      13.349 -15.947   3.000  0.00  0.00    +0.000 OA
BRANCH18151816
ATOM   1816  P   A   B   3      11.789 -16.149   2.742  0.00  0.00    +0.000 P 
ATOM   1817  OP2 A   B   3      11.297 -14.995   1.956  0.00  0.00    +0.000 OA
BRANCH18161818
ATOM   1818  OP1 A   B   3      11.147 -16.490   4.035  0.00  0.00    +0.000 OA
ATOM   1819  H   A   B   3      10.195 -16.617   3.900  0.00  0.00    +0.000 HD
ENDBRANCH18161818
BRANCH18161820
ATOM   1820  O3' U   B   2      11.751 -17.463   1.811  0.00  0.00    +0.000 OA
BRANCH18201823
ATOM   1821  C4' U   B   2      11.241 -18.351  -0.403  0.00  0.00    +0.000 C 
ATOM   1822  O4' U   B   2      11.986 -18.469  -1.643  0.00  0.00    +0.000 OA
ATOM   1823  C3' U   B   2      12.047 -17.375   0.419  0.00  0.00    +0.000 C 
ATOM   1824  C2' U   B   2      13.477 -17.768   0.066  0.00  0.00    +0.000 C 
ATOM   1825  C1' U   B   2      13.336 -18.104  -1.422  0.00  0.00    +0.000 C 
BRANCH18251826
ATOM   1826  N1  U   B   2      13.676 -16.961  -2.296  0.00  0.00    +0.000 N 
ATOM   1827  C2  U   B   2      15.018 -16.716  -2.535  0.00  0.00    +0.000 A 
ATOM   1828  O2  U   B   2      15.910 -17.394  -2.061  0.00  0.00    +0.000 OA
ATOM   1829  N3  U   B   2      15.282 -15.646  -3.355  0.00  0.00    +0.000 N 
ATOM   1830  C4  U   B   2      14.356 -14.811  -3.945  0.00  0.00    +0.000 A 
ATOM   1831  O4  U   B   2      14.747 -13.889  -4.661  0.00  0.00    +0.000 OA
ATOM   1832  C5  U   B   2      12.991 -15.128  -3.647  0.00  0.00    +0.000 A 
ATOM   1833  C6  U   B   2      12.706 -16.167  -2.856  0.00  0.00    +0.000 A 
ATOM   1834  H   U   B   2      16.230 -15.455  -3.541  0.00  0.00    +0.000 HD
ENDBRANCH18251826
BRANCH18241835
ATOM   1835  O2' U   B   2      13.891 -18.930   0.765  0.00  0.00    +0.000 OA
ATOM   1836  H   U   B   2      13.272 -19.655   0.583  0.00  0.00    +0.000 HD
ENDBRANCH18241835
BRANCH18211837
ATOM   1837  C5' U   B   2       9.817 -17.949  -0.687  0.00  0.00    +0.000 C 
BRANCH18371838
ATOM   1838  O5' U   B   2       9.748 -16.629  -1.205  0.00  0.00    +0.000 OA
BRANCH18381839
ATOM   1839  P   U   B   2       8.351 -15.993  -1.627  0.00  0.00    +0.000 P 
ATOM   1840  OP2 U   B   2       8.607 -14.638  -2.178  0.00  0.00    +0.000 OA
BRANCH18391841
ATOM   1841  OP1 U   B   2       7.398 -16.164  -0.502  0.00  0.00    +0.000 OA
ATOM   1842  H   U   B   2       6.540 -15.781  -0.744  0.00  0.00    +0.000 HD
ENDBRANCH18391841
BRANCH18391843
ATOM   1843  O3' C   B   1       7.882 -16.955  -2.834  0.00  0.00    +0.000 OA
BRANCH18431846
ATOM   1844  C4' C   B   1       7.532 -17.070  -5.252  0.00  0.00    +0.000 C 
ATOM   1845  O4' C   B   1       8.383 -17.436  -6.371  0.00  0.00    +0.000 OA
ATOM   1846  C3' C   B   1       8.514 -16.878  -4.109  0.00  0.00    +0.000 C 
ATOM   1847  C2' C   B   1       9.512 -18.004  -4.357  0.00  0.00    +0.000 C 
ATOM   1848  C1' C   B   1       9.592 -18.004  -5.883  0.00  0.00    +0.000 C 
BRANCH18481849
ATOM   1849  N1  C   B   1      10.743 -17.236  -6.399  0.00  0.00    +0.000 N 
ATOM   1850  C2  C   B   1      12.016 -17.816  -6.343  0.00  0.00    +0.000 A 
ATOM   1851  O2  C   B   1      12.145 -18.950  -5.864  0.00  0.00    +0.000 OA
ATOM   1852  N3  C   B   1      13.082 -17.125  -6.808  0.00  0.00    +0.000 NA
ATOM   1853  C4  C   B   1      12.912 -15.903  -7.316  0.00  0.00    +0.000 A 
ATOM   1854  N4  C   B   1      13.988 -15.259  -7.771  0.00  0.00    +0.000 N 
ATOM   1855  C5  C   B   1      11.627 -15.292  -7.385  0.00  0.00    +0.000 A 
ATOM   1856  C6  C   B   1      10.582 -15.987  -6.920  0.00  0.00    +0.000 A 
ATOM   1857  H   C   B   1      13.897 -14.356  -8.152  0.00  0.00    +0.000 HD
ATOM   1858  H   C   B   1      14.873 -15.687  -7.726  0.00  0.00    +0.000 HD
ENDBRANCH18481849
BRANCH18471859
ATOM   1859  O2' C   B   1       9.010 -19.247  -3.913  0.00  0.00    +0.000 OA
ATOM   1860  H   C   B   1       8.160 -19.425  -4.344  0.00  0.00    +0.000 HD
ENDBRANCH18471859
BRANCH18441861
ATOM   1861  C5' C   B   1       6.668 -15.878  -5.600  0.00  0.00    +0.000 C 
BRANCH18611862
ATOM   1862  O5' C   B   1       7.396 -14.677  -5.724  0.00  0.00    +0.000 OA
BRANCH18621864
ATOM   1863  OP3 C   B   1       5.571 -13.030  -6.489  0.00  0.00    +0.000 OA
ATOM   1864  P   C   B   1       6.638 -13.257  -5.741  0.00  0.00    +0.000 P 
BRANCH18641865
ATOM   1865  OP1 C   B   1       5.884 -13.184  -4.483  0.00  0.00    +0.000 OA
ATOM   1866  H   C   B   1       5.405 -12.342  -4.442  0.00  0.00    +0.000 HD
ENDBRANCH18641865
BRANCH18641867
ATOM   1867  OP2 C   B   1       7.682 -12.222  -5.912  0.00  0.00    +0.000 OA
ATOM   1868  H   C   B   1       8.125 -12.348  -6.766  0.00  0.00    +0.000 HD
ENDBRANCH18641867
ENDBRANCH18621864
ENDBRANCH18611862
ENDBRANCH18441861
ENDBRANCH18431846
ENDBRANCH18391843
ENDBRANCH18381839
ENDBRANCH18371838
ENDBRANCH18211837
ENDBRANCH18201823
ENDBRANCH18161820
ENDBRANCH18151816
ENDBRANCH18141815
ENDBRANCH17951814
ENDBRANCH17941797
ENDBRANCH17901794
ENDBRANCH17891790
ENDBRANCH17881789
ENDBRANCH17691788
ENDBRANCH17681771
ENDBRANCH17641768
ENDBRANCH17631764
ENDBRANCH17621763
ENDBRANCH17461762
ENDBRANCH17451748
ENDBRANCH17411745
ENDBRANCH17401741
ENDBRANCH17391740
ENDBRANCH17201739
ENDBRANCH17191722
ENDBRANCH17151719
ENDBRANCH17141715
ENDBRANCH17131714
ENDBRANCH16961713
ENDBRANCH16951698
ENDBRANCH16911695
ENDBRANCH16901691
ENDBRANCH16891690
ENDBRANCH16731689
ENDBRANCH16721675
ENDBRANCH16681672
ENDBRANCH16671668
ENDBRANCH16661667
ENDBRANCH   11666
TORSDOF 355
