REMARK  Name = /storage/kiran-stuff/aaRS/phase2/energy_scoring/vina_182jobs/modern_prours_pro_PRO/ligand.h.pdb
REMARK  2 active torsions:
REMARK  status: ('A' for Active; 'I' for Inactive)
REMARK    1  A    between atoms: CA_2  and  C_3
REMARK    2  A    between atoms: C_3  and  O_4
REMARK                            x       y       z     vdW  Elec       q    Type
REMARK                         _______ _______ _______ _____ _____    ______ ____
ROOT
ATOM      1  N   PRO C   1       2.942 -11.125 -16.225  0.00  0.00    +0.000 NA
ATOM      2  CA  PRO C   1       1.946 -11.077 -15.171  0.00  0.00    +0.000 C 
ATOM      3  CB  PRO C   1       1.350 -12.438 -15.219  0.00  0.00    +0.000 C 
ATOM      4  CG  PRO C   1       1.245 -12.657 -16.626  0.00  0.00    +0.000 C 
ATOM      5  CD  PRO C   1       2.313 -11.847 -17.253  0.00  0.00    +0.000 C 
ATOM      6  H   PRO C   1       3.184 -10.185 -16.539  0.00  0.00    +0.000 HD
ENDROOT
BRANCH   2   7
ATOM      7  C   PRO C   1       2.439 -10.704 -13.809  0.00  0.00    +0.000 C 
ATOM      8  OXT PRO C   1       3.434  -9.979 -13.716  0.00  0.00    +0.000 OA
BRANCH   7   9
ATOM      9  O   PRO C   1       1.814 -11.117 -12.824  0.00  0.00    +0.000 OA
ATOM     10  H   PRO C   1       1.063 -11.665 -12.943  0.00  0.00    +0.000 HD
ENDBRANCH   7   9
ENDBRANCH   2   7
TORSDOF 2
