REMARK  Name = /storage/kiran-stuff/aaRS/phase2/energy_scoring/vina_182jobs/modern_thrrs_GLU_GLU/ligand.h.pdb
REMARK  7 active torsions:
REMARK  status: ('A' for Active; 'I' for Inactive)
REMARK    1  A    between atoms: N_1  and  CA_2
REMARK    2  A    between atoms: CA_2  and  C_3
REMARK    3  A    between atoms: CA_2  and  CB_5
REMARK    4  A    between atoms: C_3  and  OXT_10
REMARK    5  A    between atoms: CB_5  and  CG_6
REMARK    6  A    between atoms: CG_6  and  CD_7
REMARK    7  A    between atoms: CD_7  and  OE2_9
REMARK                            x       y       z     vdW  Elec       q    Type
REMARK                         _______ _______ _______ _____ _____    ______ ____
ROOT
ATOM      1  CA  GLU B   1       1.772  17.830  -7.738  0.00  0.00    +0.000 C 
ENDROOT
BRANCH   1   2
ATOM      2  N   GLU B   1       2.559  18.344  -6.620  0.00  0.00    +0.000 NA
ATOM      3  H   GLU B   1       3.357  18.868  -6.979  0.00  0.00    +0.000 HD
ATOM      4  H   GLU B   1       2.892  17.565  -6.052  0.00  0.00    +0.000 HD
ENDBRANCH   1   2
BRANCH   1   5
ATOM      5  C   GLU B   1       0.573  17.042  -7.248  0.00  0.00    +0.000 C 
ATOM      6  O   GLU B   1      -0.503  17.132  -7.848  0.00  0.00    +0.000 OA
BRANCH   5   7
ATOM      7  OXT GLU B   1       0.712  16.287  -6.291  0.00  0.00    +0.000 OA
ATOM      8  H   GLU B   1       1.538  16.235  -5.851  0.00  0.00    +0.000 HD
ENDBRANCH   5   7
ENDBRANCH   1   5
BRANCH   1   9
ATOM      9  CB  GLU B   1       2.628  16.927  -8.612  0.00  0.00    +0.000 C 
BRANCH   9  10
ATOM     10  CG  GLU B   1       2.710  17.422 -10.018  0.00  0.00    +0.000 C 
BRANCH  10  11
ATOM     11  CD  GLU B   1       3.587  16.537 -10.870  0.00  0.00    +0.000 C 
ATOM     12  OE1 GLU B   1       3.751  16.889 -12.060  0.00  0.00    +0.000 OA
BRANCH  11  13
ATOM     13  OE2 GLU B   1       4.114  15.536 -10.391  0.00  0.00    +0.000 OA
ATOM     14  H   GLU B   1       3.963  15.311  -9.494  0.00  0.00    +0.000 HD
ENDBRANCH  11  13
ENDBRANCH  10  11
ENDBRANCH   9  10
ENDBRANCH   1   9
TORSDOF 7
