REMARK  Name = /storage/kiran-stuff/aaRS/phase2/energy_scoring/vina_182jobs/modern_thrrs_GLU_GLU/ligand.h.pdb
REMARK  7 active torsions:
REMARK  status: ('A' for Active; 'I' for Inactive)
REMARK    1  A    between atoms: N_1  and  CA_2
REMARK    2  A    between atoms: CA_2  and  C_3
REMARK    3  A    between atoms: CA_2  and  CB_5
REMARK    4  A    between atoms: C_3  and  OXT_10
REMARK    5  A    between atoms: CB_5  and  CG_6
REMARK    6  A    between atoms: CG_6  and  CD_7
REMARK    7  A    between atoms: CD_7  and  OE2_9
REMARK                            x       y       z     vdW  Elec       q    Type
REMARK                         _______ _______ _______ _____ _____    ______ ____
ROOT
ATOM      1  CA  GLU B   1       1.982  18.583  -8.808  0.00  0.00    +0.000 C 
ENDROOT
BRANCH   1   2
ATOM      2  N   GLU B   1       3.212  19.370  -8.803  0.00  0.00    +0.000 NA
ATOM      3  H   GLU B   1       3.382  19.741  -9.738  0.00  0.00    +0.000 HD
ATOM      4  H   GLU B   1       3.994  18.777  -8.526  0.00  0.00    +0.000 HD
ENDBRANCH   1   2
BRANCH   1   5
ATOM      5  C   GLU B   1       1.691  18.011  -7.435  0.00  0.00    +0.000 C 
ATOM      6  O   GLU B   1       1.976  18.667  -6.427  0.00  0.00    +0.000 OA
BRANCH   5   7
ATOM      7  OXT GLU B   1       1.127  16.924  -7.353  0.00  0.00    +0.000 OA
ATOM      8  H   GLU B   1       0.920  16.444  -8.131  0.00  0.00    +0.000 HD
ENDBRANCH   5   7
ENDBRANCH   1   5
BRANCH   1   9
ATOM      9  CB  GLU B   1       2.094  17.438  -9.802  0.00  0.00    +0.000 C 
BRANCH   9  10
ATOM     10  CG  GLU B   1       3.091  17.724 -10.876  0.00  0.00    +0.000 C 
BRANCH  10  11
ATOM     11  CD  GLU B   1       4.253  16.761 -10.829  0.00  0.00    +0.000 C 
ATOM     12  OE1 GLU B   1       5.349  17.182 -11.262  0.00  0.00    +0.000 OA
BRANCH  11  13
ATOM     13  OE2 GLU B   1       4.106  15.631 -10.369  0.00  0.00    +0.000 OA
ATOM     14  H   GLU B   1       3.267  15.358 -10.056  0.00  0.00    +0.000 HD
ENDBRANCH  11  13
ENDBRANCH  10  11
ENDBRANCH   9  10
ENDBRANCH   1   9
TORSDOF 7
