REMARK  Name = /storage/kiran-stuff/aaRS/phase2/energy_scoring/vina_182jobs/modern_thrrs_ecoli_zn_GLN_GLN/ligand.h.pdb
REMARK  6 active torsions:
REMARK  status: ('A' for Active; 'I' for Inactive)
REMARK    1  A    between atoms: N_1  and  CA_2
REMARK    2  A    between atoms: CA_2  and  C_3
REMARK    3  A    between atoms: CA_2  and  CB_5
REMARK    4  A    between atoms: C_3  and  O_4
REMARK    5  A    between atoms: CB_5  and  CG_6
REMARK    6  A    between atoms: CG_6  and  CD_7
REMARK                            x       y       z     vdW  Elec       q    Type
REMARK                         _______ _______ _______ _____ _____    ______ ____
ROOT
ATOM      1  CA  GLN B   1      10.170   3.937   8.605  0.00  0.00    +0.000 C 
ENDROOT
BRANCH   1   2
ATOM      2  N   GLN B   1      10.989   2.738   8.531  0.00  0.00    +0.000 NA
ATOM      3  H   GLN B   1      11.462   2.704   7.628  0.00  0.00    +0.000 HD
ATOM      4  H   GLN B   1      10.396   1.914   8.635  0.00  0.00    +0.000 HD
ENDBRANCH   1   2
BRANCH   1   5
ATOM      5  C   GLN B   1       9.435   4.044   9.938  0.00  0.00    +0.000 C 
ATOM      6  OXT GLN B   1       9.223   5.164  10.422  0.00  0.00    +0.000 OA
BRANCH   5   7
ATOM      7  O   GLN B   1       9.019   3.028  10.500  0.00  0.00    +0.000 OA
ATOM      8  H   GLN B   1       9.184   2.185  10.126  0.00  0.00    +0.000 HD
ENDBRANCH   5   7
ENDBRANCH   1   5
BRANCH   1   9
ATOM      9  CB  GLN B   1       9.131   3.877   7.481  0.00  0.00    +0.000 C 
BRANCH   9  10
ATOM     10  CG  GLN B   1       9.512   4.710   6.254  0.00  0.00    +0.000 C 
BRANCH  10  11
ATOM     11  CD  GLN B   1       9.155   6.151   6.461  0.00  0.00    +0.000 C 
ATOM     12  OE1 GLN B   1       9.526   6.747   7.463  0.00  0.00    +0.000 OA
ATOM     13  NE2 GLN B   1       8.413   6.743   5.542  0.00  0.00    +0.000 N 
ATOM     14  H   GLN B   1       8.126   6.243   4.744  0.00  0.00    +0.000 HD
ATOM     15  H   GLN B   1       8.147   7.684   5.655  0.00  0.00    +0.000 HD
ENDBRANCH  10  11
ENDBRANCH   9  10
ENDBRANCH   1   9
TORSDOF 6
