REMARK  Name = /storage/kiran-stuff/aaRS/phase2/energy_scoring/vina_182jobs/anc_thrrs_cat_HIS_HIS/ligand.h.pdb
REMARK  5 active torsions:
REMARK  status: ('A' for Active; 'I' for Inactive)
REMARK    1  A    between atoms: N_1  and  CA_2
REMARK    2  A    between atoms: CA_2  and  C_3
REMARK    3  A    between atoms: CA_2  and  CB_5
REMARK    4  A    between atoms: C_3  and  O_4
REMARK    5  A    between atoms: CB_5  and  CG_6
REMARK                            x       y       z     vdW  Elec       q    Type
REMARK                         _______ _______ _______ _____ _____    ______ ____
ROOT
ATOM      1  CA  HIS B   1      -3.969  -0.558   5.891  0.00  0.00    +0.000 C 
ENDROOT
BRANCH   1   2
ATOM      2  N   HIS B   1      -4.782   0.340   5.114  0.00  0.00    +0.000 NA
ATOM      3  H   HIS B   1      -4.194   0.838   4.446  0.00  0.00    +0.000 HD
ATOM      4  H   HIS B   1      -5.236   1.011   5.734  0.00  0.00    +0.000 HD
ENDBRANCH   1   2
BRANCH   1   5
ATOM      5  C   HIS B   1      -4.818  -1.308   6.889  0.00  0.00    +0.000 C 
ATOM      6  OXT HIS B   1      -6.015  -1.454   6.654  0.00  0.00    +0.000 OA
BRANCH   5   7
ATOM      7  O   HIS B   1      -4.319  -1.777   7.919  0.00  0.00    +0.000 OA
ATOM      8  H   HIS B   1      -3.405  -1.662   8.091  0.00  0.00    +0.000 HD
ENDBRANCH   5   7
ENDBRANCH   1   5
BRANCH   1   9
ATOM      9  CB  HIS B   1      -2.873   0.192   6.611  0.00  0.00    +0.000 C 
BRANCH   9  10
ATOM     10  CG  HIS B   1      -2.433   1.434   5.918  0.00  0.00    +0.000 C 
ATOM     11  ND1 HIS B   1      -1.206   1.662   5.482  0.00  0.00    +0.000 NA
ATOM     12  CD2 HIS B   1      -3.177   2.508   5.603  0.00  0.00    +0.000 C 
ATOM     13  CE1 HIS B   1      -1.173   2.859   4.901  0.00  0.00    +0.000 C 
ATOM     14  NE2 HIS B   1      -2.371   3.388   4.968  0.00  0.00    +0.000 NA
ENDBRANCH   9  10
ENDBRANCH   1   9
TORSDOF 5
