REMARK  Name = /storage/kiran-stuff/aaRS/phase2/energy_scoring/vina_182jobs/anc_thrrs_cat_HIS_HIS/ligand.h.pdb
REMARK  5 active torsions:
REMARK  status: ('A' for Active; 'I' for Inactive)
REMARK    1  A    between atoms: N_1  and  CA_2
REMARK    2  A    between atoms: CA_2  and  C_3
REMARK    3  A    between atoms: CA_2  and  CB_5
REMARK    4  A    between atoms: C_3  and  O_4
REMARK    5  A    between atoms: CB_5  and  CG_6
REMARK                            x       y       z     vdW  Elec       q    Type
REMARK                         _______ _______ _______ _____ _____    ______ ____
ROOT
ATOM      1  CA  HIS B   1      -4.130  -3.588   8.691  0.00  0.00    +0.000 C 
ENDROOT
BRANCH   1   2
ATOM      2  N   HIS B   1      -5.434  -3.003   8.523  0.00  0.00    +0.000 NA
ATOM      3  H   HIS B   1      -5.593  -2.313   9.257  0.00  0.00    +0.000 HD
ATOM      4  H   HIS B   1      -6.145  -3.732   8.581  0.00  0.00    +0.000 HD
ENDBRANCH   1   2
BRANCH   1   5
ATOM      5  C   HIS B   1      -3.870  -4.614   7.615  0.00  0.00    +0.000 C 
ATOM      6  OXT HIS B   1      -4.127  -4.325   6.449  0.00  0.00    +0.000 OA
BRANCH   5   7
ATOM      7  O   HIS B   1      -3.397  -5.722   7.897  0.00  0.00    +0.000 OA
ATOM      8  H   HIS B   1      -3.203  -5.935   8.788  0.00  0.00    +0.000 HD
ENDBRANCH   5   7
ENDBRANCH   1   5
BRANCH   1   9
ATOM      9  CB  HIS B   1      -3.998  -4.229  10.053  0.00  0.00    +0.000 C 
BRANCH   9  10
ATOM     10  CG  HIS B   1      -3.175  -3.444  11.014  0.00  0.00    +0.000 C 
ATOM     11  ND1 HIS B   1      -2.610  -3.936  12.104  0.00  0.00    +0.000 NA
ATOM     12  CD2 HIS B   1      -2.852  -2.141  10.948  0.00  0.00    +0.000 C 
ATOM     13  CE1 HIS B   1      -1.941  -2.962  12.716  0.00  0.00    +0.000 C 
ATOM     14  NE2 HIS B   1      -2.080  -1.859  12.021  0.00  0.00    +0.000 NA
ENDBRANCH   9  10
ENDBRANCH   1   9
TORSDOF 5
