REMARK  Name = /storage/kiran-stuff/aaRS/phase2/energy_scoring/vina_182jobs/anc_prors_edit_ARG_ARG/ligand.h.pdb
REMARK  7 active torsions:
REMARK  status: ('A' for Active; 'I' for Inactive)
REMARK    1  A    between atoms: N_1  and  CA_2
REMARK    2  A    between atoms: CA_2  and  C_3
REMARK    3  A    between atoms: CA_2  and  CB_5
REMARK    4  A    between atoms: C_3  and  O_4
REMARK    5  A    between atoms: CB_5  and  CG_6
REMARK    6  A    between atoms: CG_6  and  CD_7
REMARK    7  A    between atoms: CD_7  and  NE_8
REMARK                            x       y       z     vdW  Elec       q    Type
REMARK                         _______ _______ _______ _____ _____    ______ ____
ROOT
ATOM      1  CG  ARG B   1      15.780 -13.675  -4.154  0.00  0.00    +0.000 C 
ENDROOT
BRANCH   1   2
ATOM      2  CB  ARG B   1      16.533 -12.548  -4.815  0.00  0.00    +0.000 C 
BRANCH   2   3
ATOM      3  CA  ARG B   1      15.915 -11.198  -4.520  0.00  0.00    +0.000 C 
BRANCH   3   4
ATOM      4  N   ARG B   1      15.522 -10.558  -5.778  0.00  0.00    +0.000 NA
ATOM      5  H   ARG B   1      15.105  -9.648  -5.581  0.00  0.00    +0.000 HD
ATOM      6  H   ARG B   1      14.842 -11.146  -6.260  0.00  0.00    +0.000 HD
ENDBRANCH   3   4
BRANCH   3   7
ATOM      7  C   ARG B   1      16.848 -10.311  -3.727  0.00  0.00    +0.000 C 
ATOM      8  OXT ARG B   1      18.063 -10.457  -3.870  0.00  0.00    +0.000 OA
BRANCH   7   9
ATOM      9  O   ARG B   1      16.384  -9.459  -2.962  0.00  0.00    +0.000 OA
ATOM     10  H   ARG B   1      15.456  -9.367  -2.872  0.00  0.00    +0.000 HD
ENDBRANCH   7   9
ENDBRANCH   3   7
ENDBRANCH   2   3
ENDBRANCH   1   2
BRANCH   1  11
ATOM     11  CD  ARG B   1      14.332 -13.286  -3.904  0.00  0.00    +0.000 C 
BRANCH  11  12
ATOM     12  NE  ARG B   1      13.448 -14.074  -4.777  0.00  0.00    +0.000 NA
ATOM     13  CZ  ARG B   1      12.803 -13.532  -5.816  0.00  0.00    +0.000 C 
ATOM     14  NH1 ARG B   1      12.945 -12.237  -6.079  0.00  0.00    +0.000 N 
ATOM     15  NH2 ARG B   1      12.033 -14.317  -6.567  0.00  0.00    +0.000 N 
ATOM     16  H   ARG B   1      13.521 -11.679  -5.508  0.00  0.00    +0.000 HD
ATOM     17  H   ARG B   1      12.475 -11.836  -6.846  0.00  0.00    +0.000 HD
ATOM     18  H   ARG B   1      11.945 -15.274  -6.351  0.00  0.00    +0.000 HD
ATOM     19  H   ARG B   1      11.552 -13.941  -7.339  0.00  0.00    +0.000 HD
ENDBRANCH  11  12
ENDBRANCH   1  11
TORSDOF 7
