REMARK  Name = /storage/kiran-stuff/aaRS/phase2/energy_scoring/vina_182jobs/anc_prors_edit_ARG_ARG/ligand.h.pdb
REMARK  7 active torsions:
REMARK  status: ('A' for Active; 'I' for Inactive)
REMARK    1  A    between atoms: N_1  and  CA_2
REMARK    2  A    between atoms: CA_2  and  C_3
REMARK    3  A    between atoms: CA_2  and  CB_5
REMARK    4  A    between atoms: C_3  and  O_4
REMARK    5  A    between atoms: CB_5  and  CG_6
REMARK    6  A    between atoms: CG_6  and  CD_7
REMARK    7  A    between atoms: CD_7  and  NE_8
REMARK                            x       y       z     vdW  Elec       q    Type
REMARK                         _______ _______ _______ _____ _____    ______ ____
ROOT
ATOM      1  CG  ARG B   1      11.296 -14.889  -4.531  0.00  0.00    +0.000 C 
ENDROOT
BRANCH   1   2
ATOM      2  CB  ARG B   1      11.137 -15.353  -5.957  0.00  0.00    +0.000 C 
BRANCH   2   3
ATOM      3  CA  ARG B   1      10.530 -14.285  -6.841  0.00  0.00    +0.000 C 
BRANCH   3   4
ATOM      4  N   ARG B   1       9.079 -14.256  -6.642  0.00  0.00    +0.000 NA
ATOM      5  H   ARG B   1       8.668 -13.537  -7.237  0.00  0.00    +0.000 HD
ATOM      6  H   ARG B   1       8.874 -14.047  -5.665  0.00  0.00    +0.000 HD
ENDBRANCH   3   4
BRANCH   3   7
ATOM      7  C   ARG B   1      10.875 -14.494  -8.298  0.00  0.00    +0.000 C 
ATOM      8  OXT ARG B   1      10.353 -15.435  -8.898  0.00  0.00    +0.000 OA
BRANCH   7   9
ATOM      9  O   ARG B   1      11.661 -13.725  -8.860  0.00  0.00    +0.000 OA
ATOM     10  H   ARG B   1      12.045 -13.016  -8.382  0.00  0.00    +0.000 HD
ENDBRANCH   7   9
ENDBRANCH   3   7
ENDBRANCH   2   3
ENDBRANCH   1   2
BRANCH   1  11
ATOM     11  CD  ARG B   1      11.764 -16.028  -3.640  0.00  0.00    +0.000 C 
BRANCH  11  12
ATOM     12  NE  ARG B   1      10.665 -16.453  -2.758  0.00  0.00    +0.000 NA
ATOM     13  CZ  ARG B   1      10.818 -17.413  -1.840  0.00  0.00    +0.000 C 
ATOM     14  NH1 ARG B   1      11.992 -18.023  -1.711  0.00  0.00    +0.000 N 
ATOM     15  NH2 ARG B   1       9.778 -17.729  -1.070  0.00  0.00    +0.000 N 
ATOM     16  H   ARG B   1      12.745 -17.770  -2.293  0.00  0.00    +0.000 HD
ATOM     17  H   ARG B   1      12.109 -18.728  -1.033  0.00  0.00    +0.000 HD
ATOM     18  H   ARG B   1       8.919 -17.262  -1.186  0.00  0.00    +0.000 HD
ATOM     19  H   ARG B   1       9.868 -18.430  -0.385  0.00  0.00    +0.000 HD
ENDBRANCH  11  12
ENDBRANCH   1  11
TORSDOF 7
