REMARK  Name = /storage/kiran-stuff/aaRS/phase2/energy_scoring/vina_182jobs/modern_prors_CYS_CYS/ligand.h.pdb
REMARK  5 active torsions:
REMARK  status: ('A' for Active; 'I' for Inactive)
REMARK    1  A    between atoms: N_1  and  CA_2
REMARK    2  A    between atoms: CA_2  and  C_3
REMARK    3  A    between atoms: CA_2  and  CB_5
REMARK    4  A    between atoms: C_3  and  OXT_7
REMARK    5  A    between atoms: CB_5  and  SG_6
REMARK                            x       y       z     vdW  Elec       q    Type
REMARK                         _______ _______ _______ _____ _____    ______ ____
ROOT
ATOM      1  CA  CYS B   1      -1.649  -3.366  -9.021  0.00  0.00    +0.000 C 
ENDROOT
BRANCH   1   2
ATOM      2  N   CYS B   1      -1.148  -3.800 -10.327  0.00  0.00    +0.000 NA
ATOM      3  H   CYS B   1      -0.977  -2.984 -10.914  0.00  0.00    +0.000 HD
ATOM      4  H   CYS B   1      -1.840  -4.401 -10.774  0.00  0.00    +0.000 HD
ENDBRANCH   1   2
BRANCH   1   5
ATOM      5  C   CYS B   1      -0.656  -2.439  -8.340  0.00  0.00    +0.000 C 
ATOM      6  O   CYS B   1       0.461  -2.245  -8.826  0.00  0.00    +0.000 OA
BRANCH   5   7
ATOM      7  OXT CYS B   1      -0.974  -1.894  -7.261  0.00  0.00    +0.000 OA
ATOM      8  H   CYS B   1      -1.823  -2.043  -6.893  0.00  0.00    +0.000 HD
ENDBRANCH   5   7
ENDBRANCH   1   5
BRANCH   1   9
ATOM      9  CB  CYS B   1      -1.912  -4.559  -8.127  0.00  0.00    +0.000 C 
BRANCH   9  10
ATOM     10  SG  CYS B   1      -1.694  -6.119  -8.889  0.00  0.00    +0.000 S 
ATOM     11  H   CYS B   1      -2.587  -6.256  -9.906  0.00  0.00    +0.000 HD
ENDBRANCH   9  10
ENDBRANCH   1   9
TORSDOF 5
