REMARK  Name = /storage/kiran-stuff/aaRS/phase2/energy_scoring/vina_182jobs/modern_prors_CYS_CYS/ligand.h.pdb
REMARK  5 active torsions:
REMARK  status: ('A' for Active; 'I' for Inactive)
REMARK    1  A    between atoms: N_1  and  CA_2
REMARK    2  A    between atoms: CA_2  and  C_3
REMARK    3  A    between atoms: CA_2  and  CB_5
REMARK    4  A    between atoms: C_3  and  OXT_7
REMARK    5  A    between atoms: CB_5  and  SG_6
REMARK                            x       y       z     vdW  Elec       q    Type
REMARK                         _______ _______ _______ _____ _____    ______ ____
ROOT
ATOM      1  CA  CYS B   1      -1.690  -3.408  -8.749  0.00  0.00    +0.000 C 
ENDROOT
BRANCH   1   2
ATOM      2  N   CYS B   1      -0.999  -3.678 -10.012  0.00  0.00    +0.000 NA
ATOM      3  H   CYS B   1      -0.709  -2.797 -10.436  0.00  0.00    +0.000 HD
ATOM      4  H   CYS B   1      -1.630  -4.168 -10.646  0.00  0.00    +0.000 HD
ENDBRANCH   1   2
BRANCH   1   5
ATOM      5  C   CYS B   1      -0.790  -2.646  -7.791  0.00  0.00    +0.000 C 
ATOM      6  O   CYS B   1       0.412  -2.504  -8.033  0.00  0.00    +0.000 OA
BRANCH   5   7
ATOM      7  OXT CYS B   1      -1.276  -2.187  -6.735  0.00  0.00    +0.000 OA
ATOM      8  H   CYS B   1      -2.189  -2.296  -6.553  0.00  0.00    +0.000 HD
ENDBRANCH   5   7
ENDBRANCH   1   5
BRANCH   1   9
ATOM      9  CB  CYS B   1      -2.133  -4.700  -8.097  0.00  0.00    +0.000 C 
BRANCH   9  10
ATOM     10  SG  CYS B   1      -1.618  -6.159  -8.915  0.00  0.00    +0.000 S 
ATOM     11  H   CYS B   1      -2.170  -6.201 -10.158  0.00  0.00    +0.000 HD
ENDBRANCH   9  10
ENDBRANCH   1   9
TORSDOF 5
