REMARK  Name = /storage/kiran-stuff/aaRS/phase2/energy_scoring/vina_182jobs/anc_thrrs_cat_zn_CYS_CYS/ligand.h.pdb
REMARK  5 active torsions:
REMARK  status: ('A' for Active; 'I' for Inactive)
REMARK    1  A    between atoms: N_1  and  CA_2
REMARK    2  A    between atoms: CA_2  and  C_3
REMARK    3  A    between atoms: CA_2  and  CB_5
REMARK    4  A    between atoms: C_3  and  O_4
REMARK    5  A    between atoms: CB_5  and  SG_6
REMARK                            x       y       z     vdW  Elec       q    Type
REMARK                         _______ _______ _______ _____ _____    ______ ____
ROOT
ATOM      1  CA  CYS B   1       0.501  -1.306  12.946  0.00  0.00    +0.000 C 
ENDROOT
BRANCH   1   2
ATOM      2  N   CYS B   1       0.041  -0.282  13.887  0.00  0.00    +0.000 NA
ATOM      3  H   CYS B   1      -0.192  -0.720  14.779  0.00  0.00    +0.000 HD
ATOM      4  H   CYS B   1      -0.784   0.181  13.508  0.00  0.00    +0.000 HD
ENDBRANCH   1   2
BRANCH   1   5
ATOM      5  C   CYS B   1       0.862  -0.712  11.609  0.00  0.00    +0.000 C 
ATOM      6  OXT CYS B   1      -0.036  -0.488  10.800  0.00  0.00    +0.000 OA
BRANCH   5   7
ATOM      7  O   CYS B   1       2.048  -0.456  11.335  0.00  0.00    +0.000 OA
ATOM      8  H   CYS B   1       2.722  -0.633  11.962  0.00  0.00    +0.000 HD
ENDBRANCH   5   7
ENDBRANCH   1   5
BRANCH   1   9
ATOM      9  CB  CYS B   1      -0.568  -2.346  12.798  0.00  0.00    +0.000 C 
BRANCH   9  10
ATOM     10  SG  CYS B   1      -2.200  -1.696  13.232  0.00  0.00    +0.000 S 
ATOM     11  H   CYS B   1      -2.514  -0.667  12.401  0.00  0.00    +0.000 HD
ENDBRANCH   9  10
ENDBRANCH   1   9
TORSDOF 5
