REMARK  Name = /storage/kiran-stuff/aaRS/phase2/energy_scoring/vina_182jobs/anc_thrrs_cat_zn_CYS_CYS/ligand.h.pdb
REMARK  5 active torsions:
REMARK  status: ('A' for Active; 'I' for Inactive)
REMARK    1  A    between atoms: N_1  and  CA_2
REMARK    2  A    between atoms: CA_2  and  C_3
REMARK    3  A    between atoms: CA_2  and  CB_5
REMARK    4  A    between atoms: C_3  and  O_4
REMARK    5  A    between atoms: CB_5  and  SG_6
REMARK                            x       y       z     vdW  Elec       q    Type
REMARK                         _______ _______ _______ _____ _____    ______ ____
ROOT
ATOM      1  CA  CYS B   1      -4.966   1.963   5.096  0.00  0.00    +0.000 C 
ENDROOT
BRANCH   1   2
ATOM      2  N   CYS B   1      -3.791   2.822   4.934  0.00  0.00    +0.000 NA
ATOM      3  H   CYS B   1      -4.063   3.684   4.461  0.00  0.00    +0.000 HD
ATOM      4  H   CYS B   1      -3.088   2.335   4.378  0.00  0.00    +0.000 HD
ENDBRANCH   1   2
BRANCH   1   5
ATOM      5  C   CYS B   1      -4.620   0.672   5.792  0.00  0.00    +0.000 C 
ATOM      6  OXT CYS B   1      -3.605   0.069   5.451  0.00  0.00    +0.000 OA
BRANCH   5   7
ATOM      7  O   CYS B   1      -5.354   0.229   6.694  0.00  0.00    +0.000 OA
ATOM      8  H   CYS B   1      -6.125   0.699   6.944  0.00  0.00    +0.000 HD
ENDBRANCH   5   7
ENDBRANCH   1   5
BRANCH   1   9
ATOM      9  CB  CYS B   1      -5.565   1.699   3.747  0.00  0.00    +0.000 C 
BRANCH   9  10
ATOM     10  SG  CYS B   1      -5.863   3.232   2.834  0.00  0.00    +0.000 S 
ATOM     11  H   CYS B   1      -4.683   3.879   2.637  0.00  0.00    +0.000 HD
ENDBRANCH   9  10
ENDBRANCH   1   9
TORSDOF 5
