REMARK  Name = /storage/kiran-stuff/aaRS/phase2/energy_scoring/vina_182jobs/anc_prors_cat_GLN_GLN/ligand.h.pdb
REMARK  6 active torsions:
REMARK  status: ('A' for Active; 'I' for Inactive)
REMARK    1  A    between atoms: N_1  and  CA_2
REMARK    2  A    between atoms: CA_2  and  C_3
REMARK    3  A    between atoms: CA_2  and  CB_5
REMARK    4  A    between atoms: C_3  and  O_4
REMARK    5  A    between atoms: CB_5  and  CG_6
REMARK    6  A    between atoms: CG_6  and  CD_7
REMARK                            x       y       z     vdW  Elec       q    Type
REMARK                         _______ _______ _______ _____ _____    ______ ____
ROOT
ATOM      1  CA  GLN B   1      -8.178  10.237 -21.590  0.00  0.00    +0.000 C 
ENDROOT
BRANCH   1   2
ATOM      2  N   GLN B   1      -8.853   9.008 -21.243  0.00  0.00    +0.000 NA
ATOM      3  H   GLN B   1      -9.741   8.956 -21.743  0.00  0.00    +0.000 HD
ATOM      4  H   GLN B   1      -9.027   8.987 -20.238  0.00  0.00    +0.000 HD
ENDBRANCH   1   2
BRANCH   1   5
ATOM      5  C   GLN B   1      -6.840  10.329 -20.846  0.00  0.00    +0.000 C 
ATOM      6  OXT GLN B   1      -6.789  10.010 -19.665  0.00  0.00    +0.000 OA
BRANCH   5   7
ATOM      7  O   GLN B   1      -5.821  10.728 -21.418  0.00  0.00    +0.000 OA
ATOM      8  H   GLN B   1      -5.856  10.973 -22.322  0.00  0.00    +0.000 HD
ENDBRANCH   5   7
ENDBRANCH   1   5
BRANCH   1   9
ATOM      9  CB  GLN B   1      -9.065  11.441 -21.295  0.00  0.00    +0.000 C 
BRANCH   9  10
ATOM     10  CG  GLN B   1      -9.904  11.884 -22.471  0.00  0.00    +0.000 C 
BRANCH  10  11
ATOM     11  CD  GLN B   1      -9.402  13.165 -23.093  0.00  0.00    +0.000 C 
ATOM     12  OE1 GLN B   1      -8.229  13.340 -23.347  0.00  0.00    +0.000 OA
ATOM     13  NE2 GLN B   1     -10.318  14.100 -23.384  0.00  0.00    +0.000 N 
ATOM     14  H   GLN B   1     -11.266  13.943 -23.171  0.00  0.00    +0.000 HD
ATOM     15  H   GLN B   1     -10.042  14.943 -23.811  0.00  0.00    +0.000 HD
ENDBRANCH  10  11
ENDBRANCH   9  10
ENDBRANCH   1   9
TORSDOF 6
