REMARK  Name = /storage/kiran-stuff/aaRS/phase2/energy_scoring/vina_182jobs/anc_prors_cat_GLN_GLN/ligand.h.pdb
REMARK  6 active torsions:
REMARK  status: ('A' for Active; 'I' for Inactive)
REMARK    1  A    between atoms: N_1  and  CA_2
REMARK    2  A    between atoms: CA_2  and  C_3
REMARK    3  A    between atoms: CA_2  and  CB_5
REMARK    4  A    between atoms: C_3  and  O_4
REMARK    5  A    between atoms: CB_5  and  CG_6
REMARK    6  A    between atoms: CG_6  and  CD_7
REMARK                            x       y       z     vdW  Elec       q    Type
REMARK                         _______ _______ _______ _____ _____    ______ ____
ROOT
ATOM      1  CA  GLN B   1      -6.826   7.583 -20.722  0.00  0.00    +0.000 C 
ENDROOT
BRANCH   1   2
ATOM      2  N   GLN B   1      -7.772   7.413 -21.800  0.00  0.00    +0.000 NA
ATOM      3  H   GLN B   1      -7.285   7.481 -22.694  0.00  0.00    +0.000 HD
ATOM      4  H   GLN B   1      -8.485   8.141 -21.745  0.00  0.00    +0.000 HD
ENDBRANCH   1   2
BRANCH   1   5
ATOM      5  C   GLN B   1      -7.544   7.483 -19.371  0.00  0.00    +0.000 C 
ATOM      6  OXT GLN B   1      -8.506   6.734 -19.259  0.00  0.00    +0.000 OA
BRANCH   5   7
ATOM      7  O   GLN B   1      -7.171   8.151 -18.402  0.00  0.00    +0.000 OA
ATOM      8  H   GLN B   1      -6.435   8.725 -18.484  0.00  0.00    +0.000 HD
ENDBRANCH   5   7
ENDBRANCH   1   5
BRANCH   1   9
ATOM      9  CB  GLN B   1      -6.082   8.907 -20.862  0.00  0.00    +0.000 C 
BRANCH   9  10
ATOM     10  CG  GLN B   1      -5.456   9.114 -22.222  0.00  0.00    +0.000 C 
BRANCH  10  11
ATOM     11  CD  GLN B   1      -3.947   9.107 -22.173  0.00  0.00    +0.000 C 
ATOM     12  OE1 GLN B   1      -3.332   8.428 -21.378  0.00  0.00    +0.000 OA
ATOM     13  NE2 GLN B   1      -3.305   9.865 -23.073  0.00  0.00    +0.000 N 
ATOM     14  H   GLN B   1      -3.818  10.411 -23.712  0.00  0.00    +0.000 HD
ATOM     15  H   GLN B   1      -2.321   9.876 -23.095  0.00  0.00    +0.000 HD
ENDBRANCH  10  11
ENDBRANCH   9  10
ENDBRANCH   1   9
TORSDOF 6
