REMARK  Name = /storage/kiran-stuff/aaRS/phase2/energy_scoring/vina_182jobs/modern_thrrs_ecoli_zn_LYS_LYS/ligand.h.pdb
REMARK  8 active torsions:
REMARK  status: ('A' for Active; 'I' for Inactive)
REMARK    1  A    between atoms: N_1  and  CA_2
REMARK    2  A    between atoms: CA_2  and  C_3
REMARK    3  A    between atoms: CA_2  and  CB_5
REMARK    4  A    between atoms: C_3  and  OXT_10
REMARK    5  A    between atoms: CB_5  and  CG_6
REMARK    6  A    between atoms: CG_6  and  CD_7
REMARK    7  A    between atoms: CD_7  and  CE_8
REMARK    8  A    between atoms: CE_8  and  NZ_9
REMARK                            x       y       z     vdW  Elec       q    Type
REMARK                         _______ _______ _______ _____ _____    ______ ____
ROOT
ATOM      1  CA  LYS B   1      10.563   3.573   8.688  0.00  0.00    +0.000 C 
ENDROOT
BRANCH   1   2
ATOM      2  N   LYS B   1      10.936   3.595   7.279  0.00  0.00    +0.000 NA
ATOM      3  H   LYS B   1      11.946   3.709   7.197  0.00  0.00    +0.000 HD
ATOM      4  H   LYS B   1      10.468   4.374   6.815  0.00  0.00    +0.000 HD
ENDBRANCH   1   2
BRANCH   1   5
ATOM      5  C   LYS B   1       9.040   3.402   8.856  0.00  0.00    +0.000 C 
ATOM      6  O   LYS B   1       8.272   3.689   7.941  0.00  0.00    +0.000 OA
BRANCH   5   7
ATOM      7  OXT LYS B   1       8.610   2.983   9.934  0.00  0.00    +0.000 OA
ATOM      8  H   LYS B   1       9.206   2.767  10.624  0.00  0.00    +0.000 HD
ENDBRANCH   5   7
ENDBRANCH   1   5
BRANCH   1   9
ATOM      9  CB  LYS B   1      10.983   4.872   9.363  0.00  0.00    +0.000 C 
BRANCH   9  10
ATOM     10  CG  LYS B   1      10.621   6.143   8.625  0.00  0.00    +0.000 C 
BRANCH  10  11
ATOM     11  CD  LYS B   1      11.078   7.387   9.362  0.00  0.00    +0.000 C 
BRANCH  11  12
ATOM     12  CE  LYS B   1      10.512   7.390  10.754  0.00  0.00    +0.000 C 
BRANCH  12  13
ATOM     13  NZ  LYS B   1      10.672   8.650  11.412  0.00  0.00    +0.000 NA
ATOM     14  H   LYS B   1      11.665   8.864  11.501  0.00  0.00    +0.000 HD
ATOM     15  H   LYS B   1      10.249   8.607  12.340  0.00  0.00    +0.000 HD
ENDBRANCH  12  13
ENDBRANCH  11  12
ENDBRANCH  10  11
ENDBRANCH   9  10
ENDBRANCH   1   9
TORSDOF 8
