REMARK  Name = /storage/kiran-stuff/aaRS/phase2/energy_scoring/vina_182jobs/anc_thrrs_cat_zn_ASP_ASP/ligand.h.pdb
REMARK  6 active torsions:
REMARK  status: ('A' for Active; 'I' for Inactive)
REMARK    1  A    between atoms: N_1  and  CA_2
REMARK    2  A    between atoms: CA_2  and  C_3
REMARK    3  A    between atoms: CA_2  and  CB_5
REMARK    4  A    between atoms: C_3  and  O_4
REMARK    5  A    between atoms: CB_5  and  CG_6
REMARK    6  A    between atoms: CG_6  and  OD1_7
REMARK                            x       y       z     vdW  Elec       q    Type
REMARK                         _______ _______ _______ _____ _____    ______ ____
ROOT
ATOM      1  CA  ASP B   1       5.785  -2.116  -1.716  0.00  0.00    +0.000 C 
ENDROOT
BRANCH   1   2
ATOM      2  N   ASP B   1       6.952  -2.979  -1.668  0.00  0.00    +0.000 NA
ATOM      3  H   ASP B   1       6.904  -3.658  -2.428  0.00  0.00    +0.000 HD
ATOM      4  H   ASP B   1       6.974  -3.471  -0.774  0.00  0.00    +0.000 HD
ENDBRANCH   1   2
BRANCH   1   5
ATOM      5  C   ASP B   1       5.730  -1.417  -3.057  0.00  0.00    +0.000 C 
ATOM      6  OXT ASP B   1       5.079  -1.937  -3.979  0.00  0.00    +0.000 OA
BRANCH   5   7
ATOM      7  O   ASP B   1       6.349  -0.378  -3.257  0.00  0.00    +0.000 OA
ATOM      8  H   ASP B   1       6.841   0.016  -2.563  0.00  0.00    +0.000 HD
ENDBRANCH   5   7
ENDBRANCH   1   5
BRANCH   1   9
ATOM      9  CB  ASP B   1       5.859  -1.110  -0.585  0.00  0.00    +0.000 C 
BRANCH   9  10
ATOM     10  CG  ASP B   1       6.038  -1.755   0.769  0.00  0.00    +0.000 C 
ATOM     11  OD2 ASP B   1       5.680  -2.917   0.913  0.00  0.00    +0.000 OA
BRANCH  10  12
ATOM     12  OD1 ASP B   1       6.559  -1.086   1.681  0.00  0.00    +0.000 OA
ATOM     13  H   ASP B   1       6.817  -0.199   1.523  0.00  0.00    +0.000 HD
ENDBRANCH  10  12
ENDBRANCH   9  10
ENDBRANCH   1   9
TORSDOF 6
