REMARK  Name = /storage/kiran-stuff/aaRS/phase2/energy_scoring/vina_182jobs/anc_thrrs_cat_zn_ASP_ASP/ligand.h.pdb
REMARK  6 active torsions:
REMARK  status: ('A' for Active; 'I' for Inactive)
REMARK    1  A    between atoms: N_1  and  CA_2
REMARK    2  A    between atoms: CA_2  and  C_3
REMARK    3  A    between atoms: CA_2  and  CB_5
REMARK    4  A    between atoms: C_3  and  O_4
REMARK    5  A    between atoms: CB_5  and  CG_6
REMARK    6  A    between atoms: CG_6  and  OD1_7
REMARK                            x       y       z     vdW  Elec       q    Type
REMARK                         _______ _______ _______ _____ _____    ______ ____
ROOT
ATOM      1  CA  ASP B   1       5.537  -2.288  -1.595  0.00  0.00    +0.000 C 
ENDROOT
BRANCH   1   2
ATOM      2  N   ASP B   1       6.194  -3.562  -1.363  0.00  0.00    +0.000 NA
ATOM      3  H   ASP B   1       5.817  -4.260  -2.004  0.00  0.00    +0.000 HD
ATOM      4  H   ASP B   1       6.029  -3.859  -0.401  0.00  0.00    +0.000 HD
ENDBRANCH   1   2
BRANCH   1   5
ATOM      5  C   ASP B   1       5.748  -1.866  -3.033  0.00  0.00    +0.000 C 
ATOM      6  OXT ASP B   1       4.993  -2.323  -3.909  0.00  0.00    +0.000 OA
BRANCH   5   7
ATOM      7  O   ASP B   1       6.670  -1.123  -3.348  0.00  0.00    +0.000 OA
ATOM      8  H   ASP B   1       7.240  -0.778  -2.689  0.00  0.00    +0.000 HD
ENDBRANCH   5   7
ENDBRANCH   1   5
BRANCH   1   9
ATOM      9  CB  ASP B   1       6.099  -1.253  -0.641  0.00  0.00    +0.000 C 
BRANCH   9  10
ATOM     10  CG  ASP B   1       6.209  -1.756   0.779  0.00  0.00    +0.000 C 
ATOM     11  OD2 ASP B   1       5.530  -2.720   1.110  0.00  0.00    +0.000 OA
BRANCH  10  12
ATOM     12  OD1 ASP B   1       6.998  -1.183   1.553  0.00  0.00    +0.000 OA
ATOM     13  H   ASP B   1       7.497  -0.448   1.254  0.00  0.00    +0.000 HD
ENDBRANCH  10  12
ENDBRANCH   9  10
ENDBRANCH   1   9
TORSDOF 6
