REMARK  Name = /storage/kiran-stuff/aaRS/phase2/energy_scoring/vina_182jobs/anc_thrrs_cat_zn_ALA_ALA/ligand.h.pdb
REMARK  4 active torsions:
REMARK  status: ('A' for Active; 'I' for Inactive)
REMARK    1  A    between atoms: N_1  and  CA_2
REMARK    2  A    between atoms: CA_2  and  C_3
REMARK    3  A    between atoms: CA_2  and  CB_5
REMARK    4  A    between atoms: C_3  and  OXT_6
REMARK                            x       y       z     vdW  Elec       q    Type
REMARK                         _______ _______ _______ _____ _____    ______ ____
ROOT
ATOM      1  CA  ALA B   1      -3.818   7.285  -1.440  0.00  0.00    +0.000 C 
ATOM      2  CB  ALA B   1      -3.440   6.577  -0.178  0.00  0.00    +0.000 C 
ENDROOT
BRANCH   1   3
ATOM      3  N   ALA B   1      -5.088   6.768  -1.915  0.00  0.00    +0.000 NA
ATOM      4  H   ALA B   1      -5.350   7.248  -2.777  0.00  0.00    +0.000 HD
ATOM      5  H   ALA B   1      -5.806   6.924  -1.207  0.00  0.00    +0.000 HD
ENDBRANCH   1   3
BRANCH   1   6
ATOM      6  C   ALA B   1      -2.772   7.187  -2.515  0.00  0.00    +0.000 C 
ATOM      7  O   ALA B   1      -3.103   7.011  -3.682  0.00  0.00    +0.000 OA
BRANCH   6   8
ATOM      8  OXT ALA B   1      -1.576   7.294  -2.260  0.00  0.00    +0.000 OA
ATOM      9  H   ALA B   1      -1.295   7.429  -1.376  0.00  0.00    +0.000 HD
ENDBRANCH   6   8
ENDBRANCH   1   6
TORSDOF 3
