REMARK  Name = /storage/kiran-stuff/aaRS/phase2/energy_scoring/vina_182jobs/anc_thrrs_cat_zn_ALA_ALA/ligand.h.pdb
REMARK  4 active torsions:
REMARK  status: ('A' for Active; 'I' for Inactive)
REMARK    1  A    between atoms: N_1  and  CA_2
REMARK    2  A    between atoms: CA_2  and  C_3
REMARK    3  A    between atoms: CA_2  and  CB_5
REMARK    4  A    between atoms: C_3  and  OXT_6
REMARK                            x       y       z     vdW  Elec       q    Type
REMARK                         _______ _______ _______ _____ _____    ______ ____
ROOT
ATOM      1  CA  ALA B   1      -3.659   7.312  -1.266  0.00  0.00    +0.000 C 
ATOM      2  CB  ALA B   1      -2.967   6.638  -0.123  0.00  0.00    +0.000 C 
ENDROOT
BRANCH   1   3
ATOM      3  N   ALA B   1      -4.934   6.661  -1.503  0.00  0.00    +0.000 NA
ATOM      4  H   ALA B   1      -5.409   7.117  -2.282  0.00  0.00    +0.000 HD
ATOM      5  H   ALA B   1      -5.512   6.729  -0.665  0.00  0.00    +0.000 HD
ENDBRANCH   1   3
BRANCH   1   6
ATOM      6  C   ALA B   1      -2.838   7.342  -2.525  0.00  0.00    +0.000 C 
ATOM      7  O   ALA B   1      -3.389   7.436  -3.616  0.00  0.00    +0.000 OA
BRANCH   6   8
ATOM      8  OXT ALA B   1      -1.612   7.289  -2.495  0.00  0.00    +0.000 OA
ATOM      9  H   ALA B   1      -1.166   7.217  -1.674  0.00  0.00    +0.000 HD
ENDBRANCH   6   8
ENDBRANCH   1   6
TORSDOF 3
