REMARK  Name = /storage/kiran-stuff/aaRS/phase2/energy_scoring/vina_182jobs/modern_thrrs_CYS_CYS/ligand.h.pdb
REMARK  5 active torsions:
REMARK  status: ('A' for Active; 'I' for Inactive)
REMARK    1  A    between atoms: N_1  and  CA_2
REMARK    2  A    between atoms: CA_2  and  C_3
REMARK    3  A    between atoms: CA_2  and  CB_5
REMARK    4  A    between atoms: C_3  and  OXT_7
REMARK    5  A    between atoms: CB_5  and  SG_6
REMARK                            x       y       z     vdW  Elec       q    Type
REMARK                         _______ _______ _______ _____ _____    ______ ____
ROOT
ATOM      1  CA  CYS B   1       9.061  11.239  -9.210  0.00  0.00    +0.000 C 
ENDROOT
BRANCH   1   2
ATOM      2  N   CYS B   1       7.888  10.366  -9.332  0.00  0.00    +0.000 NA
ATOM      3  H   CYS B   1       8.126   9.555  -9.903  0.00  0.00    +0.000 HD
ATOM      4  H   CYS B   1       7.126  10.880  -9.773  0.00  0.00    +0.000 HD
ENDBRANCH   1   2
BRANCH   1   5
ATOM      5  C   CYS B   1      10.256  10.550  -8.637  0.00  0.00    +0.000 C 
ATOM      6  O   CYS B   1      10.268   9.336  -8.540  0.00  0.00    +0.000 OA
BRANCH   5   7
ATOM      7  OXT CYS B   1      11.241  11.212  -8.275  0.00  0.00    +0.000 OA
ATOM      8  H   CYS B   1      11.231  12.146  -8.350  0.00  0.00    +0.000 HD
ENDBRANCH   5   7
ENDBRANCH   1   5
BRANCH   1   9
ATOM      9  CB  CYS B   1       8.696  12.430  -8.367  0.00  0.00    +0.000 C 
BRANCH   9  10
ATOM     10  SG  CYS B   1       8.107  13.815  -9.338  0.00  0.00    +0.000 S 
ATOM     11  H   CYS B   1       6.978  13.454 -10.004  0.00  0.00    +0.000 HD
ENDBRANCH   9  10
ENDBRANCH   1   9
TORSDOF 5
