REMARK  Name = /storage/kiran-stuff/aaRS/phase2/energy_scoring/vina_182jobs/modern_thrrs_CYS_CYS/ligand.h.pdb
REMARK  5 active torsions:
REMARK  status: ('A' for Active; 'I' for Inactive)
REMARK    1  A    between atoms: N_1  and  CA_2
REMARK    2  A    between atoms: CA_2  and  C_3
REMARK    3  A    between atoms: CA_2  and  CB_5
REMARK    4  A    between atoms: C_3  and  OXT_7
REMARK    5  A    between atoms: CB_5  and  SG_6
REMARK                            x       y       z     vdW  Elec       q    Type
REMARK                         _______ _______ _______ _____ _____    ______ ____
ROOT
ATOM      1  CA  CYS B   1       8.838  10.302  -9.322  0.00  0.00    +0.000 C 
ENDROOT
BRANCH   1   2
ATOM      2  N   CYS B   1       7.613   9.618  -9.753  0.00  0.00    +0.000 NA
ATOM      3  H   CYS B   1       7.816   9.040 -10.569  0.00  0.00    +0.000 HD
ATOM      4  H   CYS B   1       6.905  10.309  -9.994  0.00  0.00    +0.000 HD
ENDBRANCH   1   2
BRANCH   1   5
ATOM      5  C   CYS B   1       9.962   9.368  -9.014  0.00  0.00    +0.000 C 
ATOM      6  O   CYS B   1      10.155   8.396  -9.722  0.00  0.00    +0.000 OA
BRANCH   5   7
ATOM      7  OXT CYS B   1      10.707   9.589  -8.046  0.00  0.00    +0.000 OA
ATOM      8  H   CYS B   1      10.557  10.337  -7.502  0.00  0.00    +0.000 HD
ENDBRANCH   5   7
ENDBRANCH   1   5
BRANCH   1   9
ATOM      9  CB  CYS B   1       8.525  11.150  -8.120  0.00  0.00    +0.000 C 
BRANCH   9  10
ATOM     10  SG  CYS B   1       8.173  12.854  -8.544  0.00  0.00    +0.000 S 
ATOM     11  H   CYS B   1       7.077  12.904  -9.347  0.00  0.00    +0.000 HD
ENDBRANCH   9  10
ENDBRANCH   1   9
TORSDOF 5
