REMARK  Name = /storage/kiran-stuff/aaRS/phase2/energy_scoring/vina_182jobs/anc_prors_cat_ASP_ASP/ligand.h.pdb
REMARK  6 active torsions:
REMARK  status: ('A' for Active; 'I' for Inactive)
REMARK    1  A    between atoms: N_1  and  CA_2
REMARK    2  A    between atoms: CA_2  and  C_3
REMARK    3  A    between atoms: CA_2  and  CB_5
REMARK    4  A    between atoms: C_3  and  O_4
REMARK    5  A    between atoms: CB_5  and  CG_6
REMARK    6  A    between atoms: CG_6  and  OD1_7
REMARK                            x       y       z     vdW  Elec       q    Type
REMARK                         _______ _______ _______ _____ _____    ______ ____
ROOT
ATOM      1  CA  ASP B   1       1.141   0.456  22.613  0.00  0.00    +0.000 C 
ENDROOT
BRANCH   1   2
ATOM      2  N   ASP B   1       1.051   1.774  23.224  0.00  0.00    +0.000 NA
ATOM      3  H   ASP B   1       0.742   2.451  22.527  0.00  0.00    +0.000 HD
ATOM      4  H   ASP B   1       1.967   2.047  23.580  0.00  0.00    +0.000 HD
ENDBRANCH   1   2
BRANCH   1   5
ATOM      5  C   ASP B   1      -0.196  -0.003  22.077  0.00  0.00    +0.000 C 
ATOM      6  OXT ASP B   1      -0.239  -0.942  21.267  0.00  0.00    +0.000 OA
BRANCH   5   7
ATOM      7  O   ASP B   1      -1.243   0.522  22.484  0.00  0.00    +0.000 OA
ATOM      8  H   ASP B   1      -1.205   1.231  23.096  0.00  0.00    +0.000 HD
ENDBRANCH   5   7
ENDBRANCH   1   5
BRANCH   1   9
ATOM      9  CB  ASP B   1       1.600  -0.550  23.647  0.00  0.00    +0.000 C 
BRANCH   9  10
ATOM     10  CG  ASP B   1       3.042  -0.870  23.477  0.00  0.00    +0.000 C 
ATOM     11  OD2 ASP B   1       3.396  -1.489  22.479  0.00  0.00    +0.000 OA
BRANCH  10  12
ATOM     12  OD1 ASP B   1       3.846  -0.459  24.338  0.00  0.00    +0.000 OA
ATOM     13  H   ASP B   1       3.532   0.010  25.086  0.00  0.00    +0.000 HD
ENDBRANCH  10  12
ENDBRANCH   9  10
ENDBRANCH   1   9
TORSDOF 6
