REMARK  Name = /storage/kiran-stuff/aaRS/phase2/energy_scoring/vina_182jobs/anc_prors_cat_ASP_ASP/ligand.h.pdb
REMARK  6 active torsions:
REMARK  status: ('A' for Active; 'I' for Inactive)
REMARK    1  A    between atoms: N_1  and  CA_2
REMARK    2  A    between atoms: CA_2  and  C_3
REMARK    3  A    between atoms: CA_2  and  CB_5
REMARK    4  A    between atoms: C_3  and  O_4
REMARK    5  A    between atoms: CB_5  and  CG_6
REMARK    6  A    between atoms: CG_6  and  OD1_7
REMARK                            x       y       z     vdW  Elec       q    Type
REMARK                         _______ _______ _______ _____ _____    ______ ____
ROOT
ATOM      1  CA  ASP B   1       1.685   0.796  22.711  0.00  0.00    +0.000 C 
ENDROOT
BRANCH   1   2
ATOM      2  N   ASP B   1       1.109   0.691  24.044  0.00  0.00    +0.000 NA
ATOM      3  H   ASP B   1       0.095   0.781  23.984  0.00  0.00    +0.000 HD
ATOM      4  H   ASP B   1       1.482   1.433  24.635  0.00  0.00    +0.000 HD
ENDBRANCH   1   2
BRANCH   1   5
ATOM      5  C   ASP B   1       1.172  -0.291  21.795  0.00  0.00    +0.000 C 
ATOM      6  OXT ASP B   1       1.160  -0.101  20.569  0.00  0.00    +0.000 OA
BRANCH   5   7
ATOM      7  O   ASP B   1       0.815  -1.383  22.263  0.00  0.00    +0.000 OA
ATOM      8  H   ASP B   1       0.827  -1.522  23.190  0.00  0.00    +0.000 HD
ENDBRANCH   5   7
ENDBRANCH   1   5
BRANCH   1   9
ATOM      9  CB  ASP B   1       3.190   0.662  22.799  0.00  0.00    +0.000 C 
BRANCH   9  10
ATOM     10  CG  ASP B   1       3.785   1.800  23.549  0.00  0.00    +0.000 C 
ATOM     11  OD2 ASP B   1       4.359   2.684  22.923  0.00  0.00    +0.000 OA
BRANCH  10  12
ATOM     12  OD1 ASP B   1       3.639   1.834  24.788  0.00  0.00    +0.000 OA
ATOM     13  H   ASP B   1       3.193   1.136  25.226  0.00  0.00    +0.000 HD
ENDBRANCH  10  12
ENDBRANCH   9  10
ENDBRANCH   1   9
TORSDOF 6
