REMARK  Name = /storage/kiran-stuff/aaRS/phase2/energy_scoring/vina_182jobs/modern_thrrs_ecoli_zn_MET_MET/ligand.h.pdb
REMARK  7 active torsions:
REMARK  status: ('A' for Active; 'I' for Inactive)
REMARK    1  A    between atoms: N_1  and  CA_2
REMARK    2  A    between atoms: CA_2  and  C_3
REMARK    3  A    between atoms: CA_2  and  CB_5
REMARK    4  A    between atoms: C_3  and  O_4
REMARK    5  A    between atoms: CB_5  and  CG_6
REMARK    6  A    between atoms: CG_6  and  SD_7
REMARK    7  A    between atoms: SD_7  and  CE_8
REMARK                            x       y       z     vdW  Elec       q    Type
REMARK                         _______ _______ _______ _____ _____    ______ ____
ROOT
ATOM      1  CA  MET B   1       9.660   3.630  10.534  0.00  0.00    +0.000 C 
ENDROOT
BRANCH   1   2
ATOM      2  N   MET B   1       9.555   2.319   9.936  0.00  0.00    +0.000 NA
ATOM      3  H   MET B   1      10.464   2.040   9.567  0.00  0.00    +0.000 HD
ATOM      4  H   MET B   1       8.874   2.345   9.177  0.00  0.00    +0.000 HD
ENDBRANCH   1   2
BRANCH   1   5
ATOM      5  C   MET B   1       8.309   4.045  11.082  0.00  0.00    +0.000 C 
ATOM      6  OXT MET B   1       7.313   3.935  10.360  0.00  0.00    +0.000 OA
BRANCH   5   7
ATOM      7  O   MET B   1       8.234   4.521  12.228  0.00  0.00    +0.000 OA
ATOM      8  H   MET B   1       9.004   4.594  12.756  0.00  0.00    +0.000 HD
ENDBRANCH   5   7
ENDBRANCH   1   5
BRANCH   1   9
ATOM      9  CB  MET B   1      10.107   4.663   9.506  0.00  0.00    +0.000 C 
BRANCH   9  10
ATOM     10  CG  MET B   1      11.384   4.291   8.816  0.00  0.00    +0.000 C 
BRANCH  10  11
ATOM     11  SD  MET B   1      11.105   3.123   7.487  0.00  0.00    +0.000 S 
ATOM     12  CE  MET B   1      10.009   4.027   6.401  0.00  0.00    +0.000 C 
ENDBRANCH  10  11
ENDBRANCH   9  10
ENDBRANCH   1   9
TORSDOF 6
