REMARK  Name = /storage/kiran-stuff/aaRS/phase2/energy_scoring/vina_182jobs/modern_thrrs_ecoli_zn_MET_MET/ligand.h.pdb
REMARK  7 active torsions:
REMARK  status: ('A' for Active; 'I' for Inactive)
REMARK    1  A    between atoms: N_1  and  CA_2
REMARK    2  A    between atoms: CA_2  and  C_3
REMARK    3  A    between atoms: CA_2  and  CB_5
REMARK    4  A    between atoms: C_3  and  O_4
REMARK    5  A    between atoms: CB_5  and  CG_6
REMARK    6  A    between atoms: CG_6  and  SD_7
REMARK    7  A    between atoms: SD_7  and  CE_8
REMARK                            x       y       z     vdW  Elec       q    Type
REMARK                         _______ _______ _______ _____ _____    ______ ____
ROOT
ATOM      1  CA  MET B   1       9.288   3.603  10.554  0.00  0.00    +0.000 C 
ENDROOT
BRANCH   1   2
ATOM      2  N   MET B   1       9.158   2.252  10.058  0.00  0.00    +0.000 NA
ATOM      3  H   MET B   1      10.027   1.972   9.604  0.00  0.00    +0.000 HD
ATOM      4  H   MET B   1       8.394   2.209   9.384  0.00  0.00    +0.000 HD
ENDBRANCH   1   2
BRANCH   1   5
ATOM      5  C   MET B   1       7.996   4.019  11.229  0.00  0.00    +0.000 C 
ATOM      6  OXT MET B   1       6.923   3.772  10.668  0.00  0.00    +0.000 OA
BRANCH   5   7
ATOM      7  O   MET B   1       8.040   4.632  12.310  0.00  0.00    +0.000 OA
ATOM      8  H   MET B   1       8.866   4.807  12.715  0.00  0.00    +0.000 HD
ENDBRANCH   5   7
ENDBRANCH   1   5
BRANCH   1   9
ATOM      9  CB  MET B   1       9.579   4.575   9.417  0.00  0.00    +0.000 C 
BRANCH   9  10
ATOM     10  CG  MET B   1      10.896   4.320   8.749  0.00  0.00    +0.000 C 
BRANCH  10  11
ATOM     11  SD  MET B   1      10.686   3.697   7.083  0.00  0.00    +0.000 S 
ATOM     12  CE  MET B   1       9.555   4.883   6.366  0.00  0.00    +0.000 C 
ENDBRANCH  10  11
ENDBRANCH   9  10
ENDBRANCH   1   9
TORSDOF 6
