REMARK  Name = /storage/kiran-stuff/aaRS/phase2/energy_scoring/vina_182jobs/modern_ecoli_full_thr_THR/ligand.h.pdb
REMARK  6 active torsions:
REMARK  status: ('A' for Active; 'I' for Inactive)
REMARK    1  A    between atoms: N_1  and  CA_2
REMARK    2  A    between atoms: CA_2  and  C_3
REMARK    3  A    between atoms: CA_2  and  CB_5
REMARK    4  A    between atoms: C_3  and  O_4
REMARK    5  A    between atoms: CB_5  and  OG1_6
REMARK    6  A    between atoms: CB_5  and  CG2_7
REMARK                            x       y       z     vdW  Elec       q    Type
REMARK                         _______ _______ _______ _____ _____    ______ ____
ROOT
ATOM      1  CA  THR B   1      11.618   1.111   1.515  0.00  0.00    +0.000 C 
ENDROOT
BRANCH   1   2
ATOM      2  N   THR B   1      12.240   2.441   1.677  0.00  0.00    +0.000 NA
ATOM      3  H   THR B   1      11.790   3.105   1.047  0.00  0.00    +0.000 HD
ATOM      4  H   THR B   1      13.234   2.381   1.455  0.00  0.00    +0.000 HD
ENDBRANCH   1   2
BRANCH   1   5
ATOM      5  C   THR B   1      10.129   1.169   1.823  0.00  0.00    +0.000 C 
ATOM      6  OXT THR B   1       9.454   0.135   1.661  0.00  0.00    +0.000 OA
BRANCH   5   7
ATOM      7  O   THR B   1       9.613   2.206   2.262  0.00  0.00    +0.000 OA
ATOM      8  H   THR B   1      10.135   2.975   2.378  0.00  0.00    +0.000 HD
ENDBRANCH   5   7
ENDBRANCH   1   5
BRANCH   1   9
ATOM      9  CB  THR B   1      12.284   0.111   2.453  0.00  0.00    +0.000 C 
ATOM     10  CG2 THR B   1      13.494  -0.522   1.790  0.00  0.00    +0.000 C 
BRANCH   9  11
ATOM     11  OG1 THR B   1      12.672   0.783   3.644  0.00  0.00    +0.000 OA
ATOM     12  H   THR B   1      13.301   1.490   3.427  0.00  0.00    +0.000 HD
ENDBRANCH   9  11
ENDBRANCH   1   9
TORSDOF 5
