REMARK  Name = /storage/kiran-stuff/aaRS/phase2/energy_scoring/vina_182jobs/fulllength_deep_pro_PRO/ligand.h.pdb
REMARK  611 active torsions:
REMARK  status: ('A' for Active; 'I' for Inactive)
REMARK    1  A    between atoms: OP3_1  and  P_2
REMARK    2  A    between atoms: OP3_1  and  OP2_4
REMARK    3  A    between atoms: P_2  and  OP1_3
REMARK    4  A    between atoms: P_2  and  O5'_5
REMARK    5  A    between atoms: O5'_5  and  C5'_6
REMARK    6  A    between atoms: C5'_6  and  C4'_7
REMARK    7  A    between atoms: C3'_9  and  O3'_10
REMARK    8  A    between atoms: O3'_10  and  P_22
REMARK    9  A    between atoms: C2'_11  and  O2'_12
REMARK   10  A    between atoms: C1'_13  and  N1_14
REMARK   11  A    between atoms: P_22  and  OP1_23
REMARK   12  A    between atoms: P_22  and  O5'_25
REMARK   13  A    between atoms: O5'_25  and  C5'_26
REMARK   14  A    between atoms: C5'_26  and  C4'_27
REMARK   15  A    between atoms: C3'_29  and  O3'_30
REMARK   16  A    between atoms: O3'_30  and  P_42
REMARK   17  A    between atoms: C2'_31  and  O2'_32
REMARK   18  A    between atoms: C1'_33  and  N1_34
REMARK   19  A    between atoms: P_42  and  OP2_44
REMARK   20  A    between atoms: P_42  and  O5'_45
REMARK   21  A    between atoms: O5'_45  and  C5'_46
REMARK   22  A    between atoms: C5'_46  and  C4'_47
REMARK   23  A    between atoms: C3'_49  and  O3'_50
REMARK   24  A    between atoms: O3'_50  and  P_64
REMARK   25  A    between atoms: C2'_51  and  O2'_52
REMARK   26  A    between atoms: C1'_53  and  N9_54
REMARK   27  A    between atoms: P_64  and  OP2_66
REMARK   28  A    between atoms: P_64  and  O5'_67
REMARK   29  A    between atoms: O5'_67  and  C5'_68
REMARK   30  A    between atoms: C5'_68  and  C4'_69
REMARK   31  A    between atoms: C3'_71  and  O3'_72
REMARK   32  A    between atoms: O3'_72  and  P_86
REMARK   33  A    between atoms: C2'_73  and  O2'_74
REMARK   34  A    between atoms: C1'_75  and  N9_76
REMARK   35  A    between atoms: P_86  and  OP2_88
REMARK   36  A    between atoms: P_86  and  O5'_89
REMARK   37  A    between atoms: O5'_89  and  C5'_90
REMARK   38  A    between atoms: C5'_90  and  C4'_91
REMARK   39  A    between atoms: C3'_93  and  O3'_94
REMARK   40  A    between atoms: O3'_94  and  P_106
REMARK   41  A    between atoms: C2'_95  and  O2'_96
REMARK   42  A    between atoms: C1'_97  and  N1_98
REMARK   43  A    between atoms: P_106  and  OP2_108
REMARK   44  A    between atoms: P_106  and  O5'_109
REMARK   45  A    between atoms: O5'_109  and  C5'_110
REMARK   46  A    between atoms: C5'_110  and  C4'_111
REMARK   47  A    between atoms: C3'_113  and  O3'_114
REMARK   48  A    between atoms: O3'_114  and  P_128
REMARK   49  A    between atoms: C2'_115  and  O2'_116
REMARK   50  A    between atoms: C1'_117  and  N9_118
REMARK   51  A    between atoms: P_128  and  OP1_129
REMARK   52  A    between atoms: P_128  and  O5'_131
REMARK   53  A    between atoms: O5'_131  and  C5'_132
REMARK   54  A    between atoms: C5'_132  and  C4'_133
REMARK   55  A    between atoms: C3'_135  and  O3'_136
REMARK   56  A    between atoms: O3'_136  and  P_148
REMARK   57  A    between atoms: C2'_137  and  O2'_138
REMARK   58  A    between atoms: C1'_139  and  N1_140
REMARK   59  A    between atoms: P_148  and  OP1_149
REMARK   60  A    between atoms: P_148  and  O5'_151
REMARK   61  A    between atoms: O5'_151  and  C5'_152
REMARK   62  A    between atoms: C5'_152  and  C4'_153
REMARK   63  A    between atoms: C3'_155  and  O3'_156
REMARK   64  A    between atoms: O3'_156  and  P_168
REMARK   65  A    between atoms: C2'_157  and  O2'_158
REMARK   66  A    between atoms: C1'_159  and  N1_160
REMARK   67  A    between atoms: P_168  and  OP1_169
REMARK   68  A    between atoms: P_168  and  O5'_171
REMARK   69  A    between atoms: O5'_171  and  C5'_172
REMARK   70  A    between atoms: C5'_172  and  C4'_173
REMARK   71  A    between atoms: C3'_175  and  O3'_176
REMARK   72  A    between atoms: O3'_176  and  P_190
REMARK   73  A    between atoms: C2'_177  and  O2'_178
REMARK   74  A    between atoms: C1'_179  and  N9_180
REMARK   75  A    between atoms: C6_184  and  N6_185
REMARK   76  A    between atoms: P_190  and  OP1_191
REMARK   77  A    between atoms: P_190  and  O5'_193
REMARK   78  A    between atoms: O5'_193  and  C5'_194
REMARK   79  A    between atoms: C5'_194  and  C4'_195
REMARK   80  A    between atoms: C3'_197  and  O3'_198
REMARK   81  A    between atoms: O3'_198  and  P_210
REMARK   82  A    between atoms: C2'_199  and  O2'_200
REMARK   83  A    between atoms: C1'_201  and  N1_202
REMARK   84  A    between atoms: P_210  and  OP1_211
REMARK   85  A    between atoms: P_210  and  O5'_213
REMARK   86  A    between atoms: O5'_213  and  C5'_214
REMARK   87  A    between atoms: C5'_214  and  C4'_215
REMARK   88  A    between atoms: C3'_217  and  O3'_218
REMARK   89  A    between atoms: O3'_218  and  P_230
REMARK   90  A    between atoms: C2'_219  and  O2'_220
REMARK   91  A    between atoms: C1'_221  and  N1_222
REMARK   92  A    between atoms: P_230  and  OP1_231
REMARK   93  A    between atoms: P_230  and  O5'_233
REMARK   94  A    between atoms: O5'_233  and  C5'_234
REMARK   95  A    between atoms: C5'_234  and  C4'_235
REMARK   96  A    between atoms: C3'_237  and  O3'_238
REMARK   97  A    between atoms: O3'_238  and  P_250
REMARK   98  A    between atoms: C2'_239  and  O2'_240
REMARK   99  A    between atoms: C1'_241  and  N1_242
REMARK  100  A    between atoms: P_250  and  OP2_252
REMARK  101  A    between atoms: P_250  and  O5'_253
REMARK  102  A    between atoms: O5'_253  and  C5'_254
REMARK  103  A    between atoms: C5'_254  and  C4'_255
REMARK  104  A    between atoms: C3'_257  and  O3'_258
REMARK  105  A    between atoms: O3'_258  and  P_270
REMARK  106  A    between atoms: C2'_259  and  O2'_260
REMARK  107  A    between atoms: C1'_261  and  N1_262
REMARK  108  A    between atoms: P_270  and  OP2_272
REMARK  109  A    between atoms: P_270  and  O5'_273
REMARK  110  A    between atoms: O5'_273  and  C5'_274
REMARK  111  A    between atoms: C5'_274  and  C4'_275
REMARK  112  A    between atoms: C3'_277  and  O3'_278
REMARK  113  A    between atoms: O3'_278  and  P_292
REMARK  114  A    between atoms: C2'_279  and  O2'_280
REMARK  115  A    between atoms: C1'_281  and  N9_282
REMARK  116  A    between atoms: P_292  and  OP2_294
REMARK  117  A    between atoms: P_292  and  O5'_295
REMARK  118  A    between atoms: O5'_295  and  C5'_296
REMARK  119  A    between atoms: C5'_296  and  C4'_297
REMARK  120  A    between atoms: C2'_301  and  O2'_302
REMARK  121  A    between atoms: P_312  and  OP1_313
REMARK  122  A    between atoms: C3'_319  and  O3'_320
REMARK  123  A    between atoms: O3'_320  and  P_332
REMARK  124  A    between atoms: C2'_321  and  O2'_322
REMARK  125  A    between atoms: P_332  and  OP1_333
REMARK  126  A    between atoms: P_332  and  O5'_335
REMARK  127  A    between atoms: O5'_335  and  C5'_336
REMARK  128  A    between atoms: C5'_336  and  C4'_337
REMARK  129  A    between atoms: C3'_339  and  O3'_340
REMARK  130  A    between atoms: O3'_340  and  P_352
REMARK  131  A    between atoms: C2'_341  and  O2'_342
REMARK  132  A    between atoms: C1'_343  and  N1_344
REMARK  133  A    between atoms: P_352  and  OP2_354
REMARK  134  A    between atoms: P_352  and  O5'_355
REMARK  135  A    between atoms: O5'_355  and  C5'_356
REMARK  136  A    between atoms: C5'_356  and  C4'_357
REMARK  137  A    between atoms: C3'_359  and  O3'_360
REMARK  138  A    between atoms: O3'_360  and  P_375
REMARK  139  A    between atoms: C2'_361  and  O2'_362
REMARK  140  A    between atoms: C1'_363  and  N9_364
REMARK  141  A    between atoms: P_375  and  OP2_377
REMARK  142  A    between atoms: P_375  and  O5'_378
REMARK  143  A    between atoms: O5'_378  and  C5'_379
REMARK  144  A    between atoms: C5'_379  and  C4'_380
REMARK  145  A    between atoms: C3'_382  and  O3'_383
REMARK  146  A    between atoms: O3'_383  and  P_397
REMARK  147  A    between atoms: C2'_384  and  O2'_385
REMARK  148  A    between atoms: C1'_386  and  N9_387
REMARK  149  A    between atoms: P_397  and  OP2_399
REMARK  150  A    between atoms: P_397  and  O5'_400
REMARK  151  A    between atoms: O5'_400  and  C5'_401
REMARK  152  A    between atoms: C5'_401  and  C4'_402
REMARK  153  A    between atoms: C3'_404  and  O3'_405
REMARK  154  A    between atoms: O3'_405  and  P_419
REMARK  155  A    between atoms: C2'_406  and  O2'_407
REMARK  156  A    between atoms: C1'_408  and  N9_409
REMARK  157  A    between atoms: P_419  and  OP2_421
REMARK  158  A    between atoms: P_419  and  O5'_422
REMARK  159  A    between atoms: O5'_422  and  C5'_423
REMARK  160  A    between atoms: C5'_423  and  C4'_424
REMARK  161  A    between atoms: C3'_426  and  O3'_427
REMARK  162  A    between atoms: O3'_427  and  P_441
REMARK  163  A    between atoms: C2'_428  and  O2'_429
REMARK  164  A    between atoms: C1'_430  and  N9_431
REMARK  165  A    between atoms: P_441  and  OP2_443
REMARK  166  A    between atoms: P_441  and  O5'_444
REMARK  167  A    between atoms: O5'_444  and  C5'_445
REMARK  168  A    between atoms: C5'_445  and  C4'_446
REMARK  169  A    between atoms: C3'_448  and  O3'_449
REMARK  170  A    between atoms: O3'_449  and  P_461
REMARK  171  A    between atoms: C2'_450  and  O2'_451
REMARK  172  A    between atoms: C1'_452  and  N1_453
REMARK  173  A    between atoms: P_461  and  OP1_462
REMARK  174  A    between atoms: P_461  and  O5'_464
REMARK  175  A    between atoms: O5'_464  and  C5'_465
REMARK  176  A    between atoms: C5'_465  and  C4'_466
REMARK  177  A    between atoms: C3'_468  and  O3'_469
REMARK  178  A    between atoms: O3'_469  and  P_481
REMARK  179  A    between atoms: C2'_470  and  O2'_471
REMARK  180  A    between atoms: C1'_472  and  N1_473
REMARK  181  A    between atoms: P_481  and  OP1_482
REMARK  182  A    between atoms: P_481  and  O5'_484
REMARK  183  A    between atoms: O5'_484  and  C5'_485
REMARK  184  A    between atoms: C5'_485  and  C4'_486
REMARK  185  A    between atoms: C3'_488  and  O3'_489
REMARK  186  A    between atoms: O3'_489  and  P_501
REMARK  187  A    between atoms: C2'_490  and  O2'_491
REMARK  188  A    between atoms: C1'_492  and  N1_493
REMARK  189  A    between atoms: P_501  and  OP1_502
REMARK  190  A    between atoms: P_501  and  O5'_504
REMARK  191  A    between atoms: O5'_504  and  C5'_505
REMARK  192  A    between atoms: C5'_505  and  C4'_506
REMARK  193  A    between atoms: C3'_508  and  O3'_509
REMARK  194  A    between atoms: O3'_509  and  P_521
REMARK  195  A    between atoms: C2'_510  and  O2'_511
REMARK  196  A    between atoms: C1'_512  and  N1_513
REMARK  197  A    between atoms: P_521  and  OP1_522
REMARK  198  A    between atoms: P_521  and  O5'_524
REMARK  199  A    between atoms: O5'_524  and  C5'_525
REMARK  200  A    between atoms: C5'_525  and  C4'_526
REMARK  201  A    between atoms: C3'_528  and  O3'_529
REMARK  202  A    between atoms: O3'_529  and  P_541
REMARK  203  A    between atoms: C2'_530  and  O2'_531
REMARK  204  A    between atoms: C1'_532  and  N1_533
REMARK  205  A    between atoms: P_541  and  OP2_543
REMARK  206  A    between atoms: P_541  and  O5'_544
REMARK  207  A    between atoms: O5'_544  and  C5'_545
REMARK  208  A    between atoms: C5'_545  and  C4'_546
REMARK  209  A    between atoms: C3'_548  and  O3'_549
REMARK  210  A    between atoms: O3'_549  and  P_561
REMARK  211  A    between atoms: C2'_550  and  O2'_551
REMARK  212  A    between atoms: C1'_552  and  N1_553
REMARK  213  A    between atoms: P_561  and  OP2_563
REMARK  214  A    between atoms: P_561  and  O5'_564
REMARK  215  A    between atoms: O5'_564  and  C5'_565
REMARK  216  A    between atoms: C5'_565  and  C4'_566
REMARK  217  A    between atoms: C3'_568  and  O3'_569
REMARK  218  A    between atoms: O3'_569  and  P_581
REMARK  219  A    between atoms: C2'_570  and  O2'_571
REMARK  220  A    between atoms: C1'_572  and  N1_573
REMARK  221  A    between atoms: P_581  and  OP2_583
REMARK  222  A    between atoms: P_581  and  O5'_584
REMARK  223  A    between atoms: O5'_584  and  C5'_585
REMARK  224  A    between atoms: C5'_585  and  C4'_586
REMARK  225  A    between atoms: C3'_588  and  O3'_589
REMARK  226  A    between atoms: O3'_589  and  P_603
REMARK  227  A    between atoms: C2'_590  and  O2'_591
REMARK  228  A    between atoms: C1'_592  and  N9_593
REMARK  229  A    between atoms: P_603  and  OP2_605
REMARK  230  A    between atoms: P_603  and  O5'_606
REMARK  231  A    between atoms: O5'_606  and  C5'_607
REMARK  232  A    between atoms: C5'_607  and  C4'_608
REMARK  233  A    between atoms: C3'_610  and  O3'_611
REMARK  234  A    between atoms: O3'_611  and  P_625
REMARK  235  A    between atoms: C2'_612  and  O2'_613
REMARK  236  A    between atoms: C1'_614  and  N9_615
REMARK  237  A    between atoms: P_625  and  OP2_627
REMARK  238  A    between atoms: P_625  and  O5'_628
REMARK  239  A    between atoms: O5'_628  and  C5'_629
REMARK  240  A    between atoms: C5'_629  and  C4'_630
REMARK  241  A    between atoms: C3'_632  and  O3'_633
REMARK  242  A    between atoms: O3'_633  and  P_647
REMARK  243  A    between atoms: C2'_634  and  O2'_635
REMARK  244  A    between atoms: C1'_636  and  N9_637
REMARK  245  A    between atoms: P_647  and  OP2_649
REMARK  246  A    between atoms: P_647  and  O5'_650
REMARK  247  A    between atoms: O5'_650  and  C5'_651
REMARK  248  A    between atoms: C5'_651  and  C4'_652
REMARK  249  A    between atoms: C3'_654  and  O3'_655
REMARK  250  A    between atoms: O3'_655  and  P_669
REMARK  251  A    between atoms: C2'_656  and  O2'_657
REMARK  252  A    between atoms: C1'_658  and  N9_659
REMARK  253  A    between atoms: P_669  and  OP1_670
REMARK  254  A    between atoms: P_669  and  O5'_672
REMARK  255  A    between atoms: O5'_672  and  C5'_673
REMARK  256  A    between atoms: C5'_673  and  C4'_674
REMARK  257  A    between atoms: C3'_676  and  O3'_677
REMARK  258  A    between atoms: O3'_677  and  P_689
REMARK  259  A    between atoms: C2'_678  and  O2'_679
REMARK  260  A    between atoms: C1'_680  and  N1_681
REMARK  261  A    between atoms: P_689  and  OP1_690
REMARK  262  A    between atoms: P_689  and  O5'_692
REMARK  263  A    between atoms: O5'_692  and  C5'_693
REMARK  264  A    between atoms: C5'_693  and  C4'_694
REMARK  265  A    between atoms: C3'_696  and  O3'_697
REMARK  266  A    between atoms: O3'_697  and  P_711
REMARK  267  A    between atoms: C2'_698  and  O2'_699
REMARK  268  A    between atoms: C1'_700  and  N9_701
REMARK  269  A    between atoms: C6_705  and  N6_706
REMARK  270  A    between atoms: P_711  and  OP1_712
REMARK  271  A    between atoms: P_711  and  O5'_714
REMARK  272  A    between atoms: O5'_714  and  C5'_715
REMARK  273  A    between atoms: C5'_715  and  C4'_716
REMARK  274  A    between atoms: C3'_718  and  O3'_719
REMARK  275  A    between atoms: O3'_719  and  P_733
REMARK  276  A    between atoms: C2'_720  and  O2'_721
REMARK  277  A    between atoms: C1'_722  and  N9_723
REMARK  278  A    between atoms: C6_727  and  N6_728
REMARK  279  A    between atoms: P_733  and  OP1_734
REMARK  280  A    between atoms: P_733  and  O5'_736
REMARK  281  A    between atoms: O5'_736  and  C5'_737
REMARK  282  A    between atoms: C5'_737  and  C4'_738
REMARK  283  A    between atoms: C3'_740  and  O3'_741
REMARK  284  A    between atoms: O3'_741  and  P_753
REMARK  285  A    between atoms: C2'_742  and  O2'_743
REMARK  286  A    between atoms: C1'_744  and  N1_745
REMARK  287  A    between atoms: P_753  and  OP1_754
REMARK  288  A    between atoms: P_753  and  O5'_756
REMARK  289  A    between atoms: O5'_756  and  C5'_757
REMARK  290  A    between atoms: C5'_757  and  C4'_758
REMARK  291  A    between atoms: C3'_760  and  O3'_761
REMARK  292  A    between atoms: O3'_761  and  P_775
REMARK  293  A    between atoms: C2'_762  and  O2'_763
REMARK  294  A    between atoms: C1'_764  and  N9_765
REMARK  295  A    between atoms: C6_769  and  N6_770
REMARK  296  A    between atoms: P_775  and  OP2_777
REMARK  297  A    between atoms: P_775  and  O5'_778
REMARK  298  A    between atoms: O5'_778  and  C5'_779
REMARK  299  A    between atoms: C5'_779  and  C4'_780
REMARK  300  A    between atoms: C3'_782  and  O3'_783
REMARK  301  A    between atoms: O3'_783  and  P_795
REMARK  302  A    between atoms: C2'_784  and  O2'_785
REMARK  303  A    between atoms: C1'_786  and  N1_787
REMARK  304  A    between atoms: P_795  and  OP2_797
REMARK  305  A    between atoms: P_795  and  O5'_798
REMARK  306  A    between atoms: O5'_798  and  C5'_799
REMARK  307  A    between atoms: C5'_799  and  C4'_800
REMARK  308  A    between atoms: C3'_802  and  O3'_803
REMARK  309  A    between atoms: O3'_803  and  P_815
REMARK  310  A    between atoms: C2'_804  and  O2'_805
REMARK  311  A    between atoms: C1'_806  and  N1_807
REMARK  312  A    between atoms: P_815  and  OP1_816
REMARK  313  A    between atoms: P_815  and  O5'_818
REMARK  314  A    between atoms: O5'_818  and  C5'_819
REMARK  315  A    between atoms: C5'_819  and  C4'_820
REMARK  316  A    between atoms: C3'_822  and  O3'_823
REMARK  317  A    between atoms: O3'_823  and  P_835
REMARK  318  A    between atoms: C2'_824  and  O2'_825
REMARK  319  A    between atoms: C1'_826  and  N1_827
REMARK  320  A    between atoms: P_835  and  OP1_836
REMARK  321  A    between atoms: P_835  and  O5'_838
REMARK  322  A    between atoms: O5'_838  and  C5'_839
REMARK  323  A    between atoms: C5'_839  and  C4'_840
REMARK  324  A    between atoms: C3'_842  and  O3'_843
REMARK  325  A    between atoms: O3'_843  and  P_855
REMARK  326  A    between atoms: C2'_844  and  O2'_845
REMARK  327  A    between atoms: C1'_846  and  N1_847
REMARK  328  A    between atoms: P_855  and  OP1_856
REMARK  329  A    between atoms: P_855  and  O5'_858
REMARK  330  A    between atoms: O5'_858  and  C5'_859
REMARK  331  A    between atoms: C5'_859  and  C4'_860
REMARK  332  A    between atoms: C3'_862  and  O3'_863
REMARK  333  A    between atoms: O3'_863  and  P_875
REMARK  334  A    between atoms: C2'_864  and  O2'_865
REMARK  335  A    between atoms: C1'_866  and  N1_867
REMARK  336  A    between atoms: P_875  and  OP1_876
REMARK  337  A    between atoms: P_875  and  O5'_878
REMARK  338  A    between atoms: O5'_878  and  C5'_879
REMARK  339  A    between atoms: C5'_879  and  C4'_880
REMARK  340  A    between atoms: C3'_882  and  O3'_883
REMARK  341  A    between atoms: O3'_883  and  P_897
REMARK  342  A    between atoms: C2'_884  and  O2'_885
REMARK  343  A    between atoms: C1'_886  and  N9_887
REMARK  344  A    between atoms: P_897  and  OP2_899
REMARK  345  A    between atoms: P_897  and  O5'_900
REMARK  346  A    between atoms: O5'_900  and  C5'_901
REMARK  347  A    between atoms: C5'_901  and  C4'_902
REMARK  348  A    between atoms: C3'_904  and  O3'_905
REMARK  349  A    between atoms: O3'_905  and  P_917
REMARK  350  A    between atoms: C2'_906  and  O2'_907
REMARK  351  A    between atoms: C1'_908  and  N1_909
REMARK  352  A    between atoms: P_917  and  OP2_919
REMARK  353  A    between atoms: P_917  and  O5'_920
REMARK  354  A    between atoms: O5'_920  and  C5'_921
REMARK  355  A    between atoms: C5'_921  and  C4'_922
REMARK  356  A    between atoms: C3'_924  and  O3'_925
REMARK  357  A    between atoms: O3'_925  and  P_937
REMARK  358  A    between atoms: C2'_926  and  O2'_927
REMARK  359  A    between atoms: C1'_928  and  N1_929
REMARK  360  A    between atoms: P_937  and  OP1_938
REMARK  361  A    between atoms: P_937  and  O5'_940
REMARK  362  A    between atoms: O5'_940  and  C5'_941
REMARK  363  A    between atoms: C5'_941  and  C4'_942
REMARK  364  A    between atoms: C3'_944  and  O3'_945
REMARK  365  A    between atoms: O3'_945  and  P_957
REMARK  366  A    between atoms: C2'_946  and  O2'_947
REMARK  367  A    between atoms: C1'_948  and  N1_949
REMARK  368  A    between atoms: P_957  and  OP1_958
REMARK  369  A    between atoms: P_957  and  O5'_960
REMARK  370  A    between atoms: O5'_960  and  C5'_961
REMARK  371  A    between atoms: C5'_961  and  C4'_962
REMARK  372  A    between atoms: C3'_964  and  O3'_965
REMARK  373  A    between atoms: O3'_965  and  P_977
REMARK  374  A    between atoms: C2'_966  and  O2'_967
REMARK  375  A    between atoms: C1'_968  and  N1_969
REMARK  376  A    between atoms: P_977  and  OP1_978
REMARK  377  A    between atoms: P_977  and  O5'_980
REMARK  378  A    between atoms: O5'_980  and  C5'_981
REMARK  379  A    between atoms: C5'_981  and  C4'_982
REMARK  380  A    between atoms: C3'_984  and  O3'_985
REMARK  381  A    between atoms: O3'_985  and  P_999
REMARK  382  A    between atoms: C2'_986  and  O2'_987
REMARK  383  A    between atoms: C1'_988  and  N9_989
REMARK  384  A    between atoms: C6_993  and  N6_994
REMARK  385  A    between atoms: P_999  and  OP1_1000
REMARK  386  A    between atoms: P_999  and  O5'_1002
REMARK  387  A    between atoms: O5'_1002  and  C5'_1003
REMARK  388  A    between atoms: C5'_1003  and  C4'_1004
REMARK  389  A    between atoms: C3'_1006  and  O3'_1007
REMARK  390  A    between atoms: O3'_1007  and  P_1019
REMARK  391  A    between atoms: C2'_1008  and  O2'_1009
REMARK  392  A    between atoms: C1'_1010  and  N1_1011
REMARK  393  A    between atoms: P_1019  and  OP1_1020
REMARK  394  A    between atoms: P_1019  and  O5'_1022
REMARK  395  A    between atoms: O5'_1022  and  C5'_1023
REMARK  396  A    between atoms: C5'_1023  and  C4'_1024
REMARK  397  A    between atoms: C3'_1026  and  O3'_1027
REMARK  398  A    between atoms: O3'_1027  and  P_1039
REMARK  399  A    between atoms: C2'_1028  and  O2'_1029
REMARK  400  A    between atoms: C1'_1030  and  N1_1031
REMARK  401  A    between atoms: P_1039  and  OP1_1040
REMARK  402  A    between atoms: P_1039  and  O5'_1042
REMARK  403  A    between atoms: O5'_1042  and  C5'_1043
REMARK  404  A    between atoms: C5'_1043  and  C4'_1044
REMARK  405  A    between atoms: C3'_1046  and  O3'_1047
REMARK  406  A    between atoms: O3'_1047  and  P_1059
REMARK  407  A    between atoms: C2'_1048  and  O2'_1049
REMARK  408  A    between atoms: C1'_1050  and  N1_1051
REMARK  409  A    between atoms: P_1059  and  OP1_1060
REMARK  410  A    between atoms: P_1059  and  O5'_1062
REMARK  411  A    between atoms: O5'_1062  and  C5'_1063
REMARK  412  A    between atoms: C5'_1063  and  C4'_1064
REMARK  413  A    between atoms: C3'_1066  and  O3'_1067
REMARK  414  A    between atoms: O3'_1067  and  P_1079
REMARK  415  A    between atoms: C2'_1068  and  O2'_1069
REMARK  416  A    between atoms: C1'_1070  and  N1_1071
REMARK  417  A    between atoms: P_1079  and  OP2_1081
REMARK  418  A    between atoms: P_1079  and  O5'_1082
REMARK  419  A    between atoms: O5'_1082  and  C5'_1083
REMARK  420  A    between atoms: C5'_1083  and  C4'_1084
REMARK  421  A    between atoms: C3'_1086  and  O3'_1087
REMARK  422  A    between atoms: O3'_1087  and  P_1101
REMARK  423  A    between atoms: C2'_1088  and  O2'_1089
REMARK  424  A    between atoms: C1'_1090  and  N9_1091
REMARK  425  A    between atoms: P_1101  and  OP2_1103
REMARK  426  A    between atoms: P_1101  and  O5'_1104
REMARK  427  A    between atoms: O5'_1104  and  C5'_1105
REMARK  428  A    between atoms: C5'_1105  and  C4'_1106
REMARK  429  A    between atoms: C3'_1108  and  O3'_1109
REMARK  430  A    between atoms: O3'_1109  and  P_1123
REMARK  431  A    between atoms: C2'_1110  and  O2'_1111
REMARK  432  A    between atoms: C1'_1112  and  N9_1113
REMARK  433  A    between atoms: P_1123  and  OP2_1125
REMARK  434  A    between atoms: P_1123  and  O5'_1126
REMARK  435  A    between atoms: O5'_1126  and  C5'_1127
REMARK  436  A    between atoms: C5'_1127  and  C4'_1128
REMARK  437  A    between atoms: C3'_1130  and  O3'_1131
REMARK  438  A    between atoms: O3'_1131  and  P_1145
REMARK  439  A    between atoms: C2'_1132  and  O2'_1133
REMARK  440  A    between atoms: C1'_1134  and  N9_1135
REMARK  441  A    between atoms: P_1145  and  OP2_1147
REMARK  442  A    between atoms: P_1145  and  O5'_1148
REMARK  443  A    between atoms: O5'_1148  and  C5'_1149
REMARK  444  A    between atoms: C5'_1149  and  C4'_1150
REMARK  445  A    between atoms: C3'_1152  and  O3'_1153
REMARK  446  A    between atoms: O3'_1153  and  P_1167
REMARK  447  A    between atoms: C2'_1154  and  O2'_1155
REMARK  448  A    between atoms: C1'_1156  and  N9_1157
REMARK  449  A    between atoms: P_1167  and  OP1_1168
REMARK  450  A    between atoms: P_1167  and  O5'_1170
REMARK  451  A    between atoms: O5'_1170  and  C5'_1171
REMARK  452  A    between atoms: C5'_1171  and  C4'_1172
REMARK  453  A    between atoms: C3'_1174  and  O3'_1175
REMARK  454  A    between atoms: O3'_1175  and  P_1189
REMARK  455  A    between atoms: C2'_1176  and  O2'_1177
REMARK  456  A    between atoms: C1'_1178  and  N9_1179
REMARK  457  A    between atoms: C6_1183  and  N6_1184
REMARK  458  A    between atoms: P_1189  and  OP1_1190
REMARK  459  A    between atoms: P_1189  and  O5'_1192
REMARK  460  A    between atoms: O5'_1192  and  C5'_1193
REMARK  461  A    between atoms: C5'_1193  and  C4'_1194
REMARK  462  A    between atoms: C3'_1196  and  O3'_1197
REMARK  463  A    between atoms: O3'_1197  and  P_1209
REMARK  464  A    between atoms: C2'_1198  and  O2'_1199
REMARK  465  A    between atoms: C1'_1200  and  N1_1201
REMARK  466  A    between atoms: P_1209  and  OP1_1210
REMARK  467  A    between atoms: P_1209  and  O5'_1212
REMARK  468  A    between atoms: O5'_1212  and  C5'_1213
REMARK  469  A    between atoms: C5'_1213  and  C4'_1214
REMARK  470  A    between atoms: C3'_1216  and  O3'_1217
REMARK  471  A    between atoms: O3'_1217  and  P_1231
REMARK  472  A    between atoms: C2'_1218  and  O2'_1219
REMARK  473  A    between atoms: C1'_1220  and  N9_1221
REMARK  474  A    between atoms: C6_1225  and  N6_1226
REMARK  475  A    between atoms: P_1231  and  OP1_1232
REMARK  476  A    between atoms: P_1231  and  O5'_1234
REMARK  477  A    between atoms: O5'_1234  and  C5'_1235
REMARK  478  A    between atoms: C5'_1235  and  C4'_1236
REMARK  479  A    between atoms: C3'_1238  and  O3'_1239
REMARK  480  A    between atoms: O3'_1239  and  P_1254
REMARK  481  A    between atoms: C2'_1240  and  O2'_1241
REMARK  482  A    between atoms: C1'_1242  and  N9_1243
REMARK  483  A    between atoms: P_1254  and  OP1_1255
REMARK  484  A    between atoms: P_1254  and  O5'_1257
REMARK  485  A    between atoms: O5'_1257  and  C5'_1258
REMARK  486  A    between atoms: C5'_1258  and  C4'_1259
REMARK  487  A    between atoms: C3'_1261  and  O3'_1262
REMARK  488  A    between atoms: O3'_1262  and  P_1276
REMARK  489  A    between atoms: C2'_1263  and  O2'_1264
REMARK  490  A    between atoms: C1'_1265  and  N9_1266
REMARK  491  A    between atoms: C6_1270  and  N6_1271
REMARK  492  A    between atoms: P_1276  and  OP1_1277
REMARK  493  A    between atoms: P_1276  and  O5'_1279
REMARK  494  A    between atoms: O5'_1279  and  C5'_1280
REMARK  495  A    between atoms: C5'_1280  and  C4'_1281
REMARK  496  A    between atoms: C3'_1283  and  O3'_1284
REMARK  497  A    between atoms: O3'_1284  and  P_1296
REMARK  498  A    between atoms: C2'_1285  and  O2'_1286
REMARK  499  A    between atoms: C1'_1287  and  N1_1288
REMARK  500  A    between atoms: P_1296  and  OP1_1297
REMARK  501  A    between atoms: P_1296  and  O5'_1299
REMARK  502  A    between atoms: O5'_1299  and  C5'_1300
REMARK  503  A    between atoms: C5'_1300  and  C4'_1301
REMARK  504  A    between atoms: C3'_1303  and  O3'_1304
REMARK  505  A    between atoms: O3'_1304  and  P_1316
REMARK  506  A    between atoms: C2'_1305  and  O2'_1306
REMARK  507  A    between atoms: C1'_1307  and  N1_1308
REMARK  508  A    between atoms: P_1316  and  OP1_1317
REMARK  509  A    between atoms: P_1316  and  O5'_1319
REMARK  510  A    between atoms: O5'_1319  and  C5'_1320
REMARK  511  A    between atoms: C5'_1320  and  C4'_1321
REMARK  512  A    between atoms: C3'_1323  and  O3'_1324
REMARK  513  A    between atoms: O3'_1324  and  P_1338
REMARK  514  A    between atoms: C2'_1325  and  O2'_1326
REMARK  515  A    between atoms: C1'_1327  and  N9_1328
REMARK  516  A    between atoms: C6_1332  and  N6_1333
REMARK  517  A    between atoms: P_1338  and  OP1_1339
REMARK  518  A    between atoms: P_1338  and  O5'_1341
REMARK  519  A    between atoms: O5'_1341  and  C5'_1342
REMARK  520  A    between atoms: C5'_1342  and  C4'_1343
REMARK  521  A    between atoms: C3'_1345  and  O3'_1346
REMARK  522  A    between atoms: O3'_1346  and  P_1358
REMARK  523  A    between atoms: C2'_1347  and  O2'_1348
REMARK  524  A    between atoms: C1'_1349  and  N1_1350
REMARK  525  A    between atoms: P_1358  and  OP2_1360
REMARK  526  A    between atoms: P_1358  and  O5'_1361
REMARK  527  A    between atoms: O5'_1361  and  C5'_1362
REMARK  528  A    between atoms: C5'_1362  and  C4'_1363
REMARK  529  A    between atoms: C3'_1365  and  O3'_1366
REMARK  530  A    between atoms: O3'_1366  and  P_1380
REMARK  531  A    between atoms: C2'_1367  and  O2'_1368
REMARK  532  A    between atoms: C1'_1369  and  N9_1370
REMARK  533  A    between atoms: P_1380  and  OP2_1382
REMARK  534  A    between atoms: P_1380  and  O5'_1383
REMARK  535  A    between atoms: O5'_1383  and  C5'_1384
REMARK  536  A    between atoms: C5'_1384  and  C4'_1385
REMARK  537  A    between atoms: C3'_1387  and  O3'_1388
REMARK  538  A    between atoms: O3'_1388  and  P_1402
REMARK  539  A    between atoms: C2'_1389  and  O2'_1390
REMARK  540  A    between atoms: C1'_1391  and  N9_1392
REMARK  541  A    between atoms: P_1402  and  OP2_1404
REMARK  542  A    between atoms: P_1402  and  O5'_1405
REMARK  543  A    between atoms: O5'_1405  and  C5'_1406
REMARK  544  A    between atoms: C5'_1406  and  C4'_1407
REMARK  545  A    between atoms: C3'_1409  and  O3'_1410
REMARK  546  A    between atoms: O3'_1410  and  P_1424
REMARK  547  A    between atoms: C2'_1411  and  O2'_1412
REMARK  548  A    between atoms: C1'_1413  and  N9_1414
REMARK  549  A    between atoms: P_1424  and  OP2_1426
REMARK  550  A    between atoms: P_1424  and  O5'_1427
REMARK  551  A    between atoms: O5'_1427  and  C5'_1428
REMARK  552  A    between atoms: C5'_1428  and  C4'_1429
REMARK  553  A    between atoms: C3'_1431  and  O3'_1432
REMARK  554  A    between atoms: O3'_1432  and  P_1446
REMARK  555  A    between atoms: C2'_1433  and  O2'_1434
REMARK  556  A    between atoms: C1'_1435  and  N9_1436
REMARK  557  A    between atoms: P_1446  and  OP2_1448
REMARK  558  A    between atoms: P_1446  and  O5'_1449
REMARK  559  A    between atoms: O5'_1449  and  C5'_1450
REMARK  560  A    between atoms: C5'_1450  and  C4'_1451
REMARK  561  A    between atoms: C3'_1453  and  O3'_1454
REMARK  562  A    between atoms: O3'_1454  and  P_1468
REMARK  563  A    between atoms: C2'_1455  and  O2'_1456
REMARK  564  A    between atoms: C1'_1457  and  N9_1458
REMARK  565  A    between atoms: P_1468  and  OP2_1470
REMARK  566  A    between atoms: P_1468  and  O5'_1471
REMARK  567  A    between atoms: O5'_1471  and  C5'_1472
REMARK  568  A    between atoms: C5'_1472  and  C4'_1473
REMARK  569  A    between atoms: C3'_1475  and  O3'_1476
REMARK  570  A    between atoms: O3'_1476  and  P_1488
REMARK  571  A    between atoms: C2'_1477  and  O2'_1478
REMARK  572  A    between atoms: C1'_1479  and  N1_1480
REMARK  573  A    between atoms: P_1488  and  OP1_1489
REMARK  574  A    between atoms: P_1488  and  O5'_1491
REMARK  575  A    between atoms: O5'_1491  and  C5'_1492
REMARK  576  A    between atoms: C5'_1492  and  C4'_1493
REMARK  577  A    between atoms: C3'_1495  and  O3'_1496
REMARK  578  A    between atoms: O3'_1496  and  P_1508
REMARK  579  A    between atoms: C2'_1497  and  O2'_1498
REMARK  580  A    between atoms: C1'_1499  and  N1_1500
REMARK  581  A    between atoms: P_1508  and  OP2_1510
REMARK  582  A    between atoms: P_1508  and  O5'_1511
REMARK  583  A    between atoms: O5'_1511  and  C5'_1512
REMARK  584  A    between atoms: C5'_1512  and  C4'_1513
REMARK  585  A    between atoms: C3'_1515  and  O3'_1516
REMARK  586  A    between atoms: O3'_1516  and  P_1528
REMARK  587  A    between atoms: C2'_1517  and  O2'_1518
REMARK  588  A    between atoms: C1'_1519  and  N1_1520
REMARK  589  A    between atoms: P_1528  and  OP2_1530
REMARK  590  A    between atoms: P_1528  and  O5'_1531
REMARK  591  A    between atoms: O5'_1531  and  C5'_1532
REMARK  592  A    between atoms: C5'_1532  and  C4'_1533
REMARK  593  A    between atoms: C3'_1535  and  O3'_1536
REMARK  594  A    between atoms: O3'_1536  and  P_1548
REMARK  595  A    between atoms: C2'_1537  and  O2'_1538
REMARK  596  A    between atoms: C1'_1539  and  N1_1540
REMARK  597  A    between atoms: P_1548  and  OP2_1550
REMARK  598  A    between atoms: P_1548  and  O5'_1551
REMARK  599  A    between atoms: O5'_1551  and  C5'_1552
REMARK  600  A    between atoms: C5'_1552  and  C4'_1553
REMARK  601  A    between atoms: C3'_1555  and  O3'_1556
REMARK  602  A    between atoms: O3'_1556  and  P_1568
REMARK  603  A    between atoms: C2'_1557  and  O2'_1558
REMARK  604  A    between atoms: C1'_1559  and  N1_1560
REMARK  605  A    between atoms: P_1568  and  OP1_1569
REMARK  606  A    between atoms: P_1568  and  O5'_1571
REMARK  607  A    between atoms: O5'_1571  and  C5'_1572
REMARK  608  A    between atoms: C5'_1572  and  C4'_1573
REMARK  609  A    between atoms: C3'_1575  and  O3'_1576
REMARK  610  A    between atoms: C2'_1577  and  O2'_1578
REMARK  611  A    between atoms: C1'_1579  and  N9_1580
REMARK                            x       y       z     vdW  Elec       q    Type
REMARK                         _______ _______ _______ _____ _____    ______ ____
ROOT
ATOM      1  P   U   B  39      36.382 -37.282  -7.418  0.00  0.00    +0.000 P 
ATOM      2  OP1 U   B  39      36.334 -38.113  -8.650  0.00  0.00    +0.000 OA
ENDROOT
BRANCH   1   3
ATOM      3  OP2 U   B  39      37.226 -37.698  -6.287  0.00  0.00    +0.000 OA
ATOM      4  H   U   B  39      38.141 -37.810  -6.590  0.00  0.00    +0.000 HD
ENDBRANCH   1   3
BRANCH   1   5
ATOM      5  O5' U   B  39      36.802 -35.810  -7.876  0.00  0.00    +0.000 OA
BRANCH   5   6
ATOM      6  C5' U   B  39      37.312 -34.856  -6.993  0.00  0.00    +0.000 C 
BRANCH   6   7
ATOM      7  C4' U   B  39      38.731 -34.473  -7.329  0.00  0.00    +0.000 C 
ATOM      8  O4' U   B  39      39.574 -35.655  -7.280  0.00  0.00    +0.000 OA
ATOM      9  C3' U   B  39      38.996 -33.887  -8.698  0.00  0.00    +0.000 C 
ATOM     10  C2' U   B  39      40.494 -34.119  -8.865  0.00  0.00    +0.000 C 
ATOM     11  C1' U   B  39      40.664 -35.481  -8.170  0.00  0.00    +0.000 C 
BRANCH  11  12
ATOM     12  N1  U   B  39      40.716 -36.609  -9.125  0.00  0.00    +0.000 N 
ATOM     13  C2  U   B  39      41.956 -36.966  -9.627  0.00  0.00    +0.000 A 
ATOM     14  O2  U   B  39      42.987 -36.398  -9.317  0.00  0.00    +0.000 OA
ATOM     15  N3  U   B  39      41.949 -38.011 -10.512  0.00  0.00    +0.000 N 
ATOM     16  C4  U   B  39      40.856 -38.728 -10.938  0.00  0.00    +0.000 A 
ATOM     17  O4  U   B  39      41.015 -39.648 -11.740  0.00  0.00    +0.000 OA
ATOM     18  C5  U   B  39      39.615 -38.300 -10.379  0.00  0.00    +0.000 A 
ATOM     19  C6  U   B  39      39.589 -37.282  -9.509  0.00  0.00    +0.000 A 
ATOM     20  H   U   B  39      42.821 -38.278 -10.883  0.00  0.00    +0.000 HD
ENDBRANCH  11  12
BRANCH  10  21
ATOM     21  O2' U   B  39      41.253 -33.155  -8.178  0.00  0.00    +0.000 OA
ATOM     22  H   U   B  39      41.001 -33.152  -7.241  0.00  0.00    +0.000 HD
ENDBRANCH  10  21
BRANCH   9  23
ATOM     23  O3' U   B  39      38.637 -32.525  -8.797  0.00  0.00    +0.000 OA
BRANCH  23  24
ATOM     24  P   C   B  40      38.335 -31.898 -10.217  0.00  0.00    +0.000 P 
ATOM     25  OP2 C   B  40      39.311 -32.378 -11.215  0.00  0.00    +0.000 OA
BRANCH  24  26
ATOM     26  OP1 C   B  40      36.876 -32.054 -10.482  0.00  0.00    +0.000 OA
ATOM     27  H   C   B  40      36.663 -31.676 -11.350  0.00  0.00    +0.000 HD
ENDBRANCH  24  26
BRANCH  24  28
ATOM     28  O5' C   B  40      38.633 -30.358  -9.945  0.00  0.00    +0.000 OA
BRANCH  28  29
ATOM     29  C5' C   B  40      39.956 -29.883  -9.747  0.00  0.00    +0.000 C 
BRANCH  29  30
ATOM     30  C4' C   B  40      40.068 -28.458 -10.227  0.00  0.00    +0.000 C 
ATOM     31  O4' C   B  40      39.772 -28.400 -11.647  0.00  0.00    +0.000 OA
ATOM     32  C3' C   B  40      39.110 -27.472  -9.598  0.00  0.00    +0.000 C 
ATOM     33  C2' C   B  40      39.038 -26.373 -10.647  0.00  0.00    +0.000 C 
ATOM     34  C1' C   B  40      39.088 -27.192 -11.938  0.00  0.00    +0.000 C 
BRANCH  34  35
ATOM     35  N1  C   B  40      37.746 -27.513 -12.468  0.00  0.00    +0.000 N 
ATOM     36  C2  C   B  40      36.971 -26.490 -13.033  0.00  0.00    +0.000 A 
ATOM     37  O2  C   B  40      37.421 -25.336 -13.081  0.00  0.00    +0.000 OA
ATOM     38  N3  C   B  40      35.744 -26.786 -13.522  0.00  0.00    +0.000 NA
ATOM     39  C4  C   B  40      35.284 -28.039 -13.465  0.00  0.00    +0.000 A 
ATOM     40  N4  C   B  40      34.066 -28.281 -13.961  0.00  0.00    +0.000 N 
ATOM     41  C5  C   B  40      36.051 -29.093 -12.901  0.00  0.00    +0.000 A 
ATOM     42  C6  C   B  40      37.269 -28.793 -12.420  0.00  0.00    +0.000 A 
ATOM     43  H   C   B  40      33.538 -27.547 -14.351  0.00  0.00    +0.000 HD
ATOM     44  H   C   B  40      33.697 -29.193 -13.936  0.00  0.00    +0.000 HD
ENDBRANCH  34  35
BRANCH  33  45
ATOM     45  O2' C   B  40      40.152 -25.517 -10.590  0.00  0.00    +0.000 OA
ATOM     46  H   C   B  40      40.965 -26.037 -10.686  0.00  0.00    +0.000 HD
ENDBRANCH  33  45
BRANCH  32  47
ATOM     47  O3' C   B  40      39.557 -27.007  -8.326  0.00  0.00    +0.000 OA
BRANCH  47  48
ATOM     48  P   U   B  41      38.538 -26.914  -7.100  0.00  0.00    +0.000 P 
ATOM     49  OP2 U   B  41      37.804 -28.202  -7.003  0.00  0.00    +0.000 OA
BRANCH  48  50
ATOM     50  OP1 U   B  41      39.283 -26.401  -5.927  0.00  0.00    +0.000 OA
ATOM     51  H   U   B  41      39.703 -25.557  -6.155  0.00  0.00    +0.000 HD
ENDBRANCH  48  50
BRANCH  48  52
ATOM     52  O5' U   B  41      37.502 -25.793  -7.553  0.00  0.00    +0.000 OA
BRANCH  52  53
ATOM     53  C5' U   B  41      37.917 -24.442  -7.727  0.00  0.00    +0.000 C 
BRANCH  53  54
ATOM     54  C4' U   B  41      36.818 -23.617  -8.347  0.00  0.00    +0.000 C 
ATOM     55  O4' U   B  41      36.493 -24.142  -9.663  0.00  0.00    +0.000 OA
ATOM     56  C3' U   B  41      35.494 -23.626  -7.613  0.00  0.00    +0.000 C 
ATOM     57  C2' U   B  41      34.513 -23.240  -8.710  0.00  0.00    +0.000 C 
ATOM     58  C1' U   B  41      35.110 -23.973  -9.913  0.00  0.00    +0.000 C 
BRANCH  58  59
ATOM     59  N1  U   B  41      34.498 -25.304 -10.128  0.00  0.00    +0.000 N 
ATOM     60  C2  U   B  41      33.229 -25.345 -10.684  0.00  0.00    +0.000 A 
ATOM     61  O2  U   B  41      32.607 -24.347 -10.997  0.00  0.00    +0.000 OA
ATOM     62  N3  U   B  41      32.713 -26.607 -10.861  0.00  0.00    +0.000 N 
ATOM     63  C4  U   B  41      33.319 -27.804 -10.549  0.00  0.00    +0.000 A 
ATOM     64  O4  U   B  41      32.723 -28.861 -10.769  0.00  0.00    +0.000 OA
ATOM     65  C5  U   B  41      34.625 -27.677  -9.984  0.00  0.00    +0.000 A 
ATOM     66  C6  U   B  41      35.159 -26.461  -9.799  0.00  0.00    +0.000 A 
ATOM     67  H   U   B  41      31.812 -26.661 -11.254  0.00  0.00    +0.000 HD
ENDBRANCH  58  59
BRANCH  57  68
ATOM     68  O2' U   B  41      34.523 -21.850  -8.966  0.00  0.00    +0.000 OA
ATOM     69  H   U   B  41      35.424 -21.569  -9.191  0.00  0.00    +0.000 HD
ENDBRANCH  57  68
BRANCH  56  70
ATOM     70  O3' U   B  41      35.481 -22.733  -6.505  0.00  0.00    +0.000 OA
BRANCH  70  71
ATOM     71  P   U   B  42      34.675 -23.094  -5.178  0.00  0.00    +0.000 P 
ATOM     72  OP2 U   B  42      34.911 -24.527  -4.865  0.00  0.00    +0.000 OA
BRANCH  71  73
ATOM     73  OP1 U   B  42      34.970 -22.058  -4.163  0.00  0.00    +0.000 OA
ATOM     74  H   U   B  42      34.762 -21.182  -4.525  0.00  0.00    +0.000 HD
ENDBRANCH  71  73
BRANCH  71  75
ATOM     75  O5' U   B  42      33.150 -22.931  -5.616  0.00  0.00    +0.000 OA
BRANCH  75  76
ATOM     76  C5' U   B  42      32.623 -21.658  -5.985  0.00  0.00    +0.000 C 
BRANCH  76  77
ATOM     77  C4' U   B  42      31.253 -21.790  -6.601  0.00  0.00    +0.000 C 
ATOM     78  O4' U   B  42      31.325 -22.606  -7.806  0.00  0.00    +0.000 OA
ATOM     79  C3' U   B  42      30.206 -22.487  -5.759  0.00  0.00    +0.000 C 
ATOM     80  C2' U   B  42      29.195 -22.929  -6.809  0.00  0.00    +0.000 C 
ATOM     81  C1' U   B  42      30.120 -23.332  -7.961  0.00  0.00    +0.000 C 
BRANCH  81  82
ATOM     82  N1  U   B  42      30.422 -24.780  -7.956  0.00  0.00    +0.000 N 
ATOM     83  C2  U   B  42      29.450 -25.635  -8.457  0.00  0.00    +0.000 A 
ATOM     84  O2  U   B  42      28.383 -25.243  -8.897  0.00  0.00    +0.000 OA
ATOM     85  N3  U   B  42      29.776 -26.970  -8.426  0.00  0.00    +0.000 N 
ATOM     86  C4  U   B  42      30.946 -27.527  -7.957  0.00  0.00    +0.000 A 
ATOM     87  O4  U   B  42      31.089 -28.751  -7.998  0.00  0.00    +0.000 OA
ATOM     88  C5  U   B  42      31.898 -26.584  -7.456  0.00  0.00    +0.000 A 
ATOM     89  C6  U   B  42      31.609 -25.275  -7.473  0.00  0.00    +0.000 A 
ATOM     90  H   U   B  42      29.101 -27.595  -8.776  0.00  0.00    +0.000 HD
ENDBRANCH  81  82
BRANCH  80  91
ATOM     91  O2' U   B  42      28.372 -21.861  -7.234  0.00  0.00    +0.000 OA
ATOM     92  H   U   B  42      28.927 -21.138  -7.567  0.00  0.00    +0.000 HD
ENDBRANCH  80  91
BRANCH  79  93
ATOM     93  O3' U   B  42      29.644 -21.647  -4.756  0.00  0.00    +0.000 OA
BRANCH  93  94
ATOM     94  P   A   B  43      29.332 -22.215  -3.299  0.00  0.00    +0.000 P 
ATOM     95  OP2 A   B  43      30.556 -22.882  -2.787  0.00  0.00    +0.000 OA
BRANCH  94  96
ATOM     96  OP1 A   B  43      28.703 -21.130  -2.512  0.00  0.00    +0.000 OA
ATOM     97  H   A   B  43      27.919 -20.803  -2.981  0.00  0.00    +0.000 HD
ENDBRANCH  94  96
BRANCH  94  98
ATOM     98  O5' A   B  43      28.237 -23.345  -3.558  0.00  0.00    +0.000 OA
BRANCH  98  99
ATOM     99  C5' A   B  43      26.924 -23.002  -3.990  0.00  0.00    +0.000 C 
BRANCH  99 100
ATOM    100  C4' A   B  43      26.199 -24.205  -4.544  0.00  0.00    +0.000 C 
ATOM    101  O4' A   B  43      27.005 -24.833  -5.577  0.00  0.00    +0.000 OA
ATOM    102  C3' A   B  43      25.924 -25.329  -3.565  0.00  0.00    +0.000 C 
ATOM    103  C2' A   B  43      25.750 -26.522  -4.491  0.00  0.00    +0.000 C 
ATOM    104  C1' A   B  43      26.809 -26.232  -5.550  0.00  0.00    +0.000 C 
BRANCH 104 105
ATOM    105  N9  A   B  43      28.086 -26.887  -5.237  0.00  0.00    +0.000 N 
ATOM    106  C8  A   B  43      29.236 -26.311  -4.764  0.00  0.00    +0.000 A 
ATOM    107  N7  A   B  43      30.212 -27.167  -4.574  0.00  0.00    +0.000 NA
ATOM    108  C5  A   B  43      29.667 -28.386  -4.948  0.00  0.00    +0.000 A 
ATOM    109  C6  A   B  43      30.188 -29.688  -4.981  0.00  0.00    +0.000 A 
ATOM    110  N6  A   B  43      31.436 -29.992  -4.610  0.00  0.00    +0.000 N 
ATOM    111  N1  A   B  43      29.383 -30.682  -5.407  0.00  0.00    +0.000 NA
ATOM    112  C2  A   B  43      28.134 -30.377  -5.774  0.00  0.00    +0.000 A 
ATOM    113  N3  A   B  43      27.528 -29.190  -5.789  0.00  0.00    +0.000 NA
ATOM    114  C4  A   B  43      28.359 -28.226  -5.359  0.00  0.00    +0.000 A 
ATOM    115  H   A   B  43      31.749 -30.924  -4.654  0.00  0.00    +0.000 HD
ATOM    116  H   A   B  43      32.042 -29.284  -4.293  0.00  0.00    +0.000 HD
ENDBRANCH 104 105
BRANCH 103 117
ATOM    117  O2' A   B  43      24.476 -26.533  -5.109  0.00  0.00    +0.000 OA
ATOM    118  H   A   B  43      24.341 -25.699  -5.586  0.00  0.00    +0.000 HD
ENDBRANCH 103 117
BRANCH 102 119
ATOM    119  O3' A   B  43      24.786 -25.085  -2.750  0.00  0.00    +0.000 OA
BRANCH 119 120
ATOM    120  P   C   B  44      24.742 -25.555  -1.236  0.00  0.00    +0.000 P 
ATOM    121  OP1 C   B  44      23.465 -25.087  -0.650  0.00  0.00    +0.000 OA
BRANCH 120 122
ATOM    122  OP2 C   B  44      26.028 -25.179  -0.593  0.00  0.00    +0.000 OA
ATOM    123  H   C   B  44      26.765 -25.562  -1.095  0.00  0.00    +0.000 HD
ENDBRANCH 120 122
BRANCH 120 124
ATOM    124  O5' C   B  44      24.696 -27.147  -1.337  0.00  0.00    +0.000 OA
BRANCH 124 125
ATOM    125  C5' C   B  44      23.607 -27.822  -1.951  0.00  0.00    +0.000 C 
BRANCH 125 126
ATOM    126  C4' C   B  44      23.934 -29.278  -2.192  0.00  0.00    +0.000 C 
ATOM    127  O4' C   B  44      25.122 -29.381  -3.028  0.00  0.00    +0.000 OA
ATOM    128  C3' C   B  44      24.273 -30.082  -0.957  0.00  0.00    +0.000 C 
ATOM    129  C2' C   B  44      25.116 -31.220  -1.523  0.00  0.00    +0.000 C 
ATOM    130  C1' C   B  44      25.895 -30.494  -2.625  0.00  0.00    +0.000 C 
BRANCH 130 131
ATOM    131  N1  C   B  44      27.218 -30.008  -2.170  0.00  0.00    +0.000 N 
ATOM    132  C2  C   B  44      28.260 -30.922  -2.003  0.00  0.00    +0.000 A 
ATOM    133  O2  C   B  44      28.058 -32.125  -2.241  0.00  0.00    +0.000 OA
ATOM    134  N3  C   B  44      29.473 -30.482  -1.589  0.00  0.00    +0.000 NA
ATOM    135  C4  C   B  44      29.664 -29.182  -1.339  0.00  0.00    +0.000 A 
ATOM    136  N4  C   B  44      30.873 -28.791  -0.931  0.00  0.00    +0.000 N 
ATOM    137  C5  C   B  44      28.621 -28.231  -1.502  0.00  0.00    +0.000 A 
ATOM    138  C6  C   B  44      27.428 -28.680  -1.916  0.00  0.00    +0.000 A 
ATOM    139  H   C   B  44      31.593 -29.453  -0.819  0.00  0.00    +0.000 HD
ATOM    140  H   C   B  44      31.045 -27.840  -0.742  0.00  0.00    +0.000 HD
ENDBRANCH 130 131
BRANCH 129 141
ATOM    141  O2' C   B  44      24.319 -32.232  -2.106  0.00  0.00    +0.000 OA
ATOM    142  H   C   B  44      23.754 -31.844  -2.792  0.00  0.00    +0.000 HD
ENDBRANCH 129 141
BRANCH 128 143
ATOM    143  O3' C   B  44      23.109 -30.536  -0.274  0.00  0.00    +0.000 OA
BRANCH 143 144
ATOM    144  P   U   B  45      23.121 -30.777   1.297  0.00  0.00    +0.000 P 
ATOM    145  OP1 U   B  45      21.721 -30.964   1.735  0.00  0.00    +0.000 OA
BRANCH 144 146
ATOM    146  OP2 U   B  45      23.957 -29.725   1.925  0.00  0.00    +0.000 OA
ATOM    147  H   U   B  45      24.842 -29.735   1.527  0.00  0.00    +0.000 HD
ENDBRANCH 144 146
BRANCH 144 148
ATOM    148  O5' U   B  45      23.883 -32.173   1.449  0.00  0.00    +0.000 OA
BRANCH 148 149
ATOM    149  C5' U   B  45      23.377 -33.358   0.847  0.00  0.00    +0.000 C 
BRANCH 149 150
ATOM    150  C4' U   B  45      24.237 -34.554   1.187  0.00  0.00    +0.000 C 
ATOM    151  O4' U   B  45      25.567 -34.385   0.624  0.00  0.00    +0.000 OA
ATOM    152  C3' U   B  45      24.487 -34.778   2.661  0.00  0.00    +0.000 C 
ATOM    153  C2' U   B  45      25.776 -35.592   2.659  0.00  0.00    +0.000 C 
ATOM    154  C1' U   B  45      26.531 -34.958   1.486  0.00  0.00    +0.000 C 
BRANCH 154 155
ATOM    155  N1  U   B  45      27.473 -33.898   1.915  0.00  0.00    +0.000 N 
ATOM    156  C2  U   B  45      28.642 -34.285   2.553  0.00  0.00    +0.000 A 
ATOM    157  O2  U   B  45      28.924 -35.447   2.785  0.00  0.00    +0.000 OA
ATOM    158  N3  U   B  45      29.475 -33.251   2.915  0.00  0.00    +0.000 N 
ATOM    159  C4  U   B  45      29.268 -31.900   2.714  0.00  0.00    +0.000 A 
ATOM    160  O4  U   B  45      30.113 -31.097   3.099  0.00  0.00    +0.000 OA
ATOM    161  C5  U   B  45      28.045 -31.583   2.048  0.00  0.00    +0.000 A 
ATOM    162  C6  U   B  45      27.211 -32.569   1.679  0.00  0.00    +0.000 A 
ATOM    163  H   U   B  45      30.312 -33.502   3.368  0.00  0.00    +0.000 HD
ENDBRANCH 154 155
BRANCH 153 164
ATOM    164  O2' U   B  45      25.536 -36.952   2.371  0.00  0.00    +0.000 OA
ATOM    165  H   U   B  45      25.074 -37.026   1.522  0.00  0.00    +0.000 HD
ENDBRANCH 153 164
BRANCH 152 166
ATOM    166  O3' U   B  45      23.400 -35.440   3.301  0.00  0.00    +0.000 OA
BRANCH 166 167
ATOM    167  P   U   B  46      22.913 -34.997   4.748  0.00  0.00    +0.000 P 
ATOM    168  OP2 U   B  46      22.869 -33.513   4.801  0.00  0.00    +0.000 OA
BRANCH 167 169
ATOM    169  OP1 U   B  46      21.697 -35.779   5.084  0.00  0.00    +0.000 OA
ATOM    170  H   U   B  46      20.961 -35.491   4.521  0.00  0.00    +0.000 HD
ENDBRANCH 167 169
BRANCH 167 171
ATOM    171  O5' U   B  46      24.096 -35.495   5.687  0.00  0.00    +0.000 OA
BRANCH 171 172
ATOM    172  C5' U   B  46      24.426 -36.875   5.789  0.00  0.00    +0.000 C 
BRANCH 172 173
ATOM    173  C4' U   B  46      25.736 -37.073   6.510  0.00  0.00    +0.000 C 
ATOM    174  O4' U   B  46      26.816 -36.477   5.736  0.00  0.00    +0.000 OA
ATOM    175  C3' U   B  46      25.848 -36.410   7.865  0.00  0.00    +0.000 C 
ATOM    176  C2' U   B  46      27.354 -36.285   8.044  0.00  0.00    +0.000 C 
ATOM    177  C1' U   B  46      27.796 -35.954   6.611  0.00  0.00    +0.000 C 
BRANCH 177 178
ATOM    178  N1  U   B  46      27.912 -34.496   6.381  0.00  0.00    +0.000 N 
ATOM    179  C2  U   B  46      29.060 -33.867   6.833  0.00  0.00    +0.000 A 
ATOM    180  O2  U   B  46      29.959 -34.459   7.405  0.00  0.00    +0.000 OA
ATOM    181  N3  U   B  46      29.119 -32.513   6.596  0.00  0.00    +0.000 N 
ATOM    182  C4  U   B  46      28.168 -31.740   5.963  0.00  0.00    +0.000 A 
ATOM    183  O4  U   B  46      28.366 -30.535   5.824  0.00  0.00    +0.000 OA
ATOM    184  C5  U   B  46      27.015 -32.461   5.525  0.00  0.00    +0.000 A 
ATOM    185  C6  U   B  46      26.930 -33.782   5.743  0.00  0.00    +0.000 A 
ATOM    186  H   U   B  46      29.926 -32.046   6.912  0.00  0.00    +0.000 HD
ENDBRANCH 177 178
BRANCH 176 187
ATOM    187  O2' U   B  46      27.942 -37.510   8.430  0.00  0.00    +0.000 OA
ATOM    188  H   U   B  46      27.722 -38.194   7.778  0.00  0.00    +0.000 HD
ENDBRANCH 176 187
BRANCH 175 189
ATOM    189  O3' U   B  46      25.211 -37.158   8.892  0.00  0.00    +0.000 OA
BRANCH 189 190
ATOM    190  P   U   B  47      24.561 -36.418  10.149  0.00  0.00    +0.000 P 
ATOM    191  OP2 U   B  47      23.922 -35.161   9.676  0.00  0.00    +0.000 OA
BRANCH 190 192
ATOM    192  OP1 U   B  47      23.759 -37.415  10.895  0.00  0.00    +0.000 OA
ATOM    193  H   U   B  47      22.984 -37.666  10.368  0.00  0.00    +0.000 HD
ENDBRANCH 190 192
BRANCH 190 194
ATOM    194  O5' U   B  47      25.822 -36.027  11.039  0.00  0.00    +0.000 OA
BRANCH 194 195
ATOM    195  C5' U   B  47      26.673 -37.028  11.584  0.00  0.00    +0.000 C 
BRANCH 195 196
ATOM    196  C4' U   B  47      27.880 -36.424  12.259  0.00  0.00    +0.000 C 
ATOM    197  O4' U   B  47      28.705 -35.737  11.276  0.00  0.00    +0.000 OA
ATOM    198  C3' U   B  47      27.595 -35.365  13.301  0.00  0.00    +0.000 C 
ATOM    199  C2' U   B  47      28.916 -34.610  13.361  0.00  0.00    +0.000 C 
ATOM    200  C1' U   B  47      29.340 -34.629  11.884  0.00  0.00    +0.000 C 
BRANCH 200 201
ATOM    201  N1  U   B  47      28.947 -33.394  11.168  0.00  0.00    +0.000 N 
ATOM    202  C2  U   B  47      29.750 -32.278  11.333  0.00  0.00    +0.000 A 
ATOM    203  O2  U   B  47      30.745 -32.275  12.033  0.00  0.00    +0.000 OA
ATOM    204  N3  U   B  47      29.343 -31.157  10.647  0.00  0.00    +0.000 N 
ATOM    205  C4  U   B  47      28.238 -31.042   9.830  0.00  0.00    +0.000 A 
ATOM    206  O4  U   B  47      28.004 -29.967   9.281  0.00  0.00    +0.000 OA
ATOM    207  C5  U   B  47      27.462 -32.236   9.709  0.00  0.00    +0.000 A 
ATOM    208  C6  U   B  47      27.834 -33.344  10.366  0.00  0.00    +0.000 A 
ATOM    209  H   U   B  47      29.900 -30.352  10.750  0.00  0.00    +0.000 HD
ENDBRANCH 200 201
BRANCH 199 210
ATOM    210  O2' U   B  47      29.886 -35.303  14.123  0.00  0.00    +0.000 OA
ATOM    211  H   U   B  47      30.009 -36.193  13.758  0.00  0.00    +0.000 HD
ENDBRANCH 199 210
BRANCH 198 212
ATOM    212  O3' U   B  47      27.201 -35.920  14.550  0.00  0.00    +0.000 OA
BRANCH 212 213
ATOM    213  P   A   B  48      26.223 -35.102  15.528  0.00  0.00    +0.000 P 
ATOM    214  OP2 A   B  48      25.217 -34.393  14.697  0.00  0.00    +0.000 OA
BRANCH 213 215
ATOM    215  OP1 A   B  48      25.775 -36.024  16.597  0.00  0.00    +0.000 OA
ATOM    216  H   A   B  48      25.191 -36.699  16.218  0.00  0.00    +0.000 HD
ENDBRANCH 213 215
BRANCH 213 217
ATOM    217  O5' A   B  48      27.178 -34.008  16.183  0.00  0.00    +0.000 OA
BRANCH 217 218
ATOM    218  C5' A   B  48      28.264 -34.394  17.016  0.00  0.00    +0.000 C 
BRANCH 218 219
ATOM    219  C4' A   B  48      29.150 -33.215  17.336  0.00  0.00    +0.000 C 
ATOM    220  O4' A   B  48      29.750 -32.706  16.113  0.00  0.00    +0.000 OA
ATOM    221  C3' A   B  48      28.457 -32.009  17.936  0.00  0.00    +0.000 C 
ATOM    222  C2' A   B  48      29.426 -30.884  17.604  0.00  0.00    +0.000 C 
ATOM    223  C1' A   B  48      29.908 -31.304  16.212  0.00  0.00    +0.000 C 
BRANCH 223 224
ATOM    224  N9  A   B  48      29.133 -30.669  15.132  0.00  0.00    +0.000 N 
ATOM    225  C8  A   B  48      28.118 -31.210  14.389  0.00  0.00    +0.000 A 
ATOM    226  N7  A   B  48      27.626 -30.384  13.492  0.00  0.00    +0.000 NA
ATOM    227  C5  A   B  48      28.371 -29.225  13.659  0.00  0.00    +0.000 A 
ATOM    228  C6  A   B  48      28.343 -27.981  13.013  0.00  0.00    +0.000 A 
ATOM    229  N1  A   B  48      29.215 -27.040  13.418  0.00  0.00    +0.000 NA
ATOM    230  C2  A   B  48      30.062 -27.338  14.410  0.00  0.00    +0.000 A 
ATOM    231  N3  A   B  48      30.187 -28.473  15.093  0.00  0.00    +0.000 NA
ATOM    232  C4  A   B  48      29.303 -29.387  14.666  0.00  0.00    +0.000 A 
BRANCH 228 233
ATOM    233  N6  A   B  48      27.495 -27.677  12.023  0.00  0.00    +0.000 N 
ATOM    234  H   A   B  48      27.523 -26.785  11.607  0.00  0.00    +0.000 HD
ATOM    235  H   A   B  48      26.843 -28.345  11.710  0.00  0.00    +0.000 HD
ENDBRANCH 228 233
ENDBRANCH 223 224
BRANCH 222 236
ATOM    236  O2' A   B  48      30.531 -30.863  18.486  0.00  0.00    +0.000 OA
ATOM    237  H   A   B  48      30.976 -31.725  18.467  0.00  0.00    +0.000 HD
ENDBRANCH 222 236
BRANCH 221 238
ATOM    238  O3' A   B  48      28.216 -32.154  19.330  0.00  0.00    +0.000 OA
BRANCH 238 239
ATOM    239  P   U   B  49      26.940 -31.493  20.024  0.00  0.00    +0.000 P 
ATOM    240  OP2 U   B  49      25.808 -31.566  19.062  0.00  0.00    +0.000 OA
BRANCH 239 241
ATOM    241  OP1 U   B  49      26.794 -32.076  21.378  0.00  0.00    +0.000 OA
ATOM    242  H   U   B  49      26.542 -33.010  21.303  0.00  0.00    +0.000 HD
ENDBRANCH 239 241
BRANCH 239 243
ATOM    243  O5' U   B  49      27.353 -29.962  20.187  0.00  0.00    +0.000 OA
BRANCH 243 244
ATOM    244  C5' U   B  49      28.451 -29.576  20.996  0.00  0.00    +0.000 C 
BRANCH 244 245
ATOM    245  C4' U   B  49      28.874 -28.154  20.716  0.00  0.00    +0.000 C 
ATOM    246  O4' U   B  49      29.265 -28.023  19.321  0.00  0.00    +0.000 OA
ATOM    247  C3' U   B  49      27.804 -27.097  20.898  0.00  0.00    +0.000 C 
ATOM    248  C2' U   B  49      28.329 -25.958  20.031  0.00  0.00    +0.000 C 
ATOM    249  C1' U   B  49      28.926 -26.733  18.849  0.00  0.00    +0.000 C 
BRANCH 249 250
ATOM    250  N1  U   B  49      27.977 -26.872  17.722  0.00  0.00    +0.000 N 
ATOM    251  C2  U   B  49      27.850 -25.799  16.857  0.00  0.00    +0.000 A 
ATOM    252  O2  U   B  49      28.477 -24.763  16.987  0.00  0.00    +0.000 OA
ATOM    253  N3  U   B  49      26.956 -25.981  15.828  0.00  0.00    +0.000 N 
ATOM    254  C4  U   B  49      26.196 -27.100  15.580  0.00  0.00    +0.000 A 
ATOM    255  O4  U   B  49      25.436 -27.112  14.611  0.00  0.00    +0.000 OA
ATOM    256  C5  U   B  49      26.382 -28.164  16.517  0.00  0.00    +0.000 A 
ATOM    257  C6  U   B  49      27.246 -28.017  17.530  0.00  0.00    +0.000 A 
ATOM    258  H   U   B  49      26.848 -25.229  15.201  0.00  0.00    +0.000 HD
ENDBRANCH 249 250
BRANCH 248 259
ATOM    259  O2' U   B  49      29.359 -25.237  20.671  0.00  0.00    +0.000 OA
ATOM    260  H   U   B  49      30.074 -25.844  20.917  0.00  0.00    +0.000 HD
ENDBRANCH 248 259
BRANCH 247 261
ATOM    261  O3' U   B  49      27.620 -26.731  22.259  0.00  0.00    +0.000 OA
BRANCH 261 262
ATOM    262  P   U   B  50      26.194 -26.236  22.793  0.00  0.00    +0.000 P 
ATOM    263  OP2 U   B  50      25.144 -27.057  22.139  0.00  0.00    +0.000 OA
BRANCH 262 264
ATOM    264  OP1 U   B  50      26.253 -26.160  24.269  0.00  0.00    +0.000 OA
ATOM    265  H   U   B  50      25.396 -25.861  24.612  0.00  0.00    +0.000 HD
ENDBRANCH 262 264
BRANCH 262 266
ATOM    266  O5' U   B  50      26.082 -24.751  22.227  0.00  0.00    +0.000 OA
BRANCH 266 267
ATOM    267  C5' U   B  50      27.031 -23.758  22.570  0.00  0.00    +0.000 C 
BRANCH 267 268
ATOM    268  C4' U   B  50      26.892 -22.536  21.697  0.00  0.00    +0.000 C 
ATOM    269  O4' U   B  50      27.156 -22.890  20.311  0.00  0.00    +0.000 OA
ATOM    270  C3' U   B  50      25.514 -21.910  21.663  0.00  0.00    +0.000 C 
ATOM    271  C2' U   B  50      25.531 -21.156  20.339  0.00  0.00    +0.000 C 
ATOM    272  C1' U   B  50      26.344 -22.108  19.455  0.00  0.00    +0.000 C 
BRANCH 272 273
ATOM    273  N1  U   B  50      25.499 -23.018  18.650  0.00  0.00    +0.000 N 
ATOM    274  C2  U   B  50      24.983 -22.532  17.461  0.00  0.00    +0.000 A 
ATOM    275  O2  U   B  50      25.190 -21.401  17.059  0.00  0.00    +0.000 OA
ATOM    276  N3  U   B  50      24.208 -23.422  16.754  0.00  0.00    +0.000 N 
ATOM    277  C4  U   B  50      23.905 -24.720  17.105  0.00  0.00    +0.000 A 
ATOM    278  O4  U   B  50      23.195 -25.398  16.363  0.00  0.00    +0.000 OA
ATOM    279  C5  U   B  50      24.476 -25.145  18.345  0.00  0.00    +0.000 A 
ATOM    280  C6  U   B  50      25.233 -24.301  19.056  0.00  0.00    +0.000 A 
ATOM    281  H   U   B  50      23.829 -23.097  15.906  0.00  0.00    +0.000 HD
ENDBRANCH 272 273
BRANCH 271 282
ATOM    282  O2' U   B  50      26.218 -19.925  20.437  0.00  0.00    +0.000 OA
ATOM    283  H   U   B  50      27.121 -20.083  20.755  0.00  0.00    +0.000 HD
ENDBRANCH 271 282
BRANCH 270 284
ATOM    284  O3' U   B  50      25.280 -21.078  22.789  0.00  0.00    +0.000 OA
BRANCH 284 285
ATOM    285  P   U   B  51      23.809 -20.587  23.154  0.00  0.00    +0.000 P 
ATOM    286  OP2 U   B  51      22.841 -21.623  22.722  0.00  0.00    +0.000 OA
BRANCH 285 287
ATOM    287  OP1 U   B  51      23.798 -20.128  24.566  0.00  0.00    +0.000 OA
ATOM    288  H   U   B  51      22.907 -19.826  24.801  0.00  0.00    +0.000 HD
ENDBRANCH 285 287
BRANCH 285 289
ATOM    289  O5' U   B  51      23.634 -19.310  22.222  0.00  0.00    +0.000 OA
BRANCH 289 290
ATOM    290  C5' U   B  51      22.343 -18.868  21.848  0.00  0.00    +0.000 C 
BRANCH 290 291
ATOM    291  C4' U   B  51      22.366 -18.255  20.471  0.00  0.00    +0.000 C 
ATOM    292  O4' U   B  51      22.993 -19.170  19.531  0.00  0.00    +0.000 OA
ATOM    293  C3' U   B  51      21.000 -17.985  19.876  0.00  0.00    +0.000 C 
ATOM    294  C2' U   B  51      21.275 -18.013  18.384  0.00  0.00    +0.000 C 
ATOM    295  C1' U   B  51      22.323 -19.128  18.294  0.00  0.00    +0.000 C 
BRANCH 295 296
ATOM    296  N1  U   B  51      21.745 -20.468  18.043  0.00  0.00    +0.000 N 
ATOM    297  C2  U   B  51      21.150 -20.725  16.818  0.00  0.00    +0.000 A 
ATOM    298  O2  U   B  51      21.061 -19.897  15.928  0.00  0.00    +0.000 OA
ATOM    299  N3  U   B  51      20.647 -21.995  16.670  0.00  0.00    +0.000 N 
ATOM    300  C4  U   B  51      20.683 -23.013  17.596  0.00  0.00    +0.000 A 
ATOM    301  O4  U   B  51      20.194 -24.106  17.317  0.00  0.00    +0.000 OA
ATOM    302  C5  U   B  51      21.319 -22.673  18.831  0.00  0.00    +0.000 A 
ATOM    303  C6  U   B  51      21.816 -21.447  19.006  0.00  0.00    +0.000 A 
ATOM    304  H   U   B  51      20.214 -22.199  15.809  0.00  0.00    +0.000 HD
ENDBRANCH 295 296
BRANCH 294 305
ATOM    305  O2' U   B  51      21.843 -16.807  17.923  0.00  0.00    +0.000 OA
ATOM    306  H   U   B  51      22.656 -16.622  18.419  0.00  0.00    +0.000 HD
ENDBRANCH 294 305
BRANCH 293 307
ATOM    307  O3' U   B  51      20.458 -16.756  20.342  0.00  0.00    +0.000 OA
BRANCH 307 308
ATOM    308  P   U   B  52      18.965 -16.665  20.865  0.00  0.00    +0.000 P 
ATOM    309  OP2 U   B  52      18.607 -17.962  21.491  0.00  0.00    +0.000 OA
BRANCH 308 310
ATOM    310  OP1 U   B  52      18.805 -15.407  21.634  0.00  0.00    +0.000 OA
ATOM    311  H   U   B  52      19.081 -14.656  21.086  0.00  0.00    +0.000 HD
ENDBRANCH 308 310
BRANCH 308 312
ATOM    312  O5' U   B  52      18.146 -16.522  19.508  0.00  0.00    +0.000 OA
BRANCH 312 313
ATOM    313  C5' U   B  52      18.443 -15.486  18.577  0.00  0.00    +0.000 C 
BRANCH 313 314
ATOM    314  C4' U   B  52      17.917 -15.812  17.204  0.00  0.00    +0.000 C 
ATOM    315  O4' U   B  52      18.601 -16.982  16.673  0.00  0.00    +0.000 OA
ATOM    316  C3' U   B  52      16.453 -16.180  17.126  0.00  0.00    +0.000 C 
ATOM    317  C2' U   B  52      16.387 -16.963  15.820  0.00  0.00    +0.000 C 
ATOM    318  C1' U   B  52      17.713 -17.730  15.863  0.00  0.00    +0.000 C 
BRANCH 318 319
ATOM    319  N1  U   B  52      17.567 -19.086  16.442  0.00  0.00    +0.000 N 
ATOM    320  C2  U   B  52      17.042 -20.075  15.624  0.00  0.00    +0.000 A 
ATOM    321  O2  U   B  52      16.698 -19.872  14.471  0.00  0.00    +0.000 OA
ATOM    322  N3  U   B  52      16.931 -21.315  16.208  0.00  0.00    +0.000 N 
ATOM    323  C4  U   B  52      17.287 -21.661  17.495  0.00  0.00    +0.000 A 
ATOM    324  O4  U   B  52      17.126 -22.822  17.875  0.00  0.00    +0.000 OA
ATOM    325  C5  U   B  52      17.820 -20.584  18.276  0.00  0.00    +0.000 A 
ATOM    326  C6  U   B  52      17.939 -19.366  17.735  0.00  0.00    +0.000 A 
ATOM    327  H   U   B  52      16.557 -22.033  15.647  0.00  0.00    +0.000 HD
ENDBRANCH 318 319
BRANCH 317 328
ATOM    328  O2' U   B  52      16.391 -16.108  14.694  0.00  0.00    +0.000 OA
ATOM    329  H   U   B  52      17.176 -15.539  14.723  0.00  0.00    +0.000 HD
ENDBRANCH 317 328
BRANCH 316 330
ATOM    330  O3' U   B  52      15.596 -15.045  17.153  0.00  0.00    +0.000 OA
BRANCH 330 331
ATOM    331  P   A   B  53      14.143 -15.143  17.787  0.00  0.00    +0.000 P 
ATOM    332  OP1 A   B  53      13.589 -13.771  17.887  0.00  0.00    +0.000 OA
BRANCH 331 333
ATOM    333  OP2 A   B  53      14.215 -16.000  18.997  0.00  0.00    +0.000 OA
ATOM    334  H   A   B  53      14.599 -16.859  18.762  0.00  0.00    +0.000 HD
ENDBRANCH 331 333
BRANCH 331 335
ATOM    335  O5' A   B  53      13.316 -15.933  16.675  0.00  0.00    +0.000 OA
BRANCH 335 336
ATOM    336  C5' A   B  53      13.160 -15.394  15.365  0.00  0.00    +0.000 C 
BRANCH 336 337
ATOM    337  C4' A   B  53      12.653 -16.441  14.404  0.00  0.00    +0.000 C 
ATOM    338  O4' A   B  53      13.605 -17.540  14.313  0.00  0.00    +0.000 OA
ATOM    339  C3' A   B  53      11.355 -17.118  14.787  0.00  0.00    +0.000 C 
ATOM    340  C2' A   B  53      11.426 -18.418  13.995  0.00  0.00    +0.000 C 
ATOM    341  C1' A   B  53      12.913 -18.755  14.099  0.00  0.00    +0.000 C 
BRANCH 341 342
ATOM    342  N9  A   B  53      13.202 -19.669  15.217  0.00  0.00    +0.000 N 
ATOM    343  C8  A   B  53      13.753 -19.367  16.438  0.00  0.00    +0.000 A 
ATOM    344  N7  A   B  53      13.889 -20.412  17.221  0.00  0.00    +0.000 NA
ATOM    345  C5  A   B  53      13.396 -21.468  16.468  0.00  0.00    +0.000 A 
ATOM    346  C6  A   B  53      13.261 -22.842  16.730  0.00  0.00    +0.000 A 
ATOM    347  N6  A   B  53      13.631 -23.411  17.885  0.00  0.00    +0.000 N 
ATOM    348  N1  A   B  53      12.728 -23.619  15.768  0.00  0.00    +0.000 NA
ATOM    349  C2  A   B  53      12.357 -23.052  14.614  0.00  0.00    +0.000 A 
ATOM    350  N3  A   B  53      12.435 -21.771  14.246  0.00  0.00    +0.000 NA
ATOM    351  C4  A   B  53      12.968 -21.024  15.230  0.00  0.00    +0.000 A 
ATOM    352  H   A   B  53      13.514 -24.380  18.016  0.00  0.00    +0.000 HD
ATOM    353  H   A   B  53      14.020 -22.860  18.603  0.00  0.00    +0.000 HD
ENDBRANCH 341 342
BRANCH 340 354
ATOM    354  O2' A   B  53      11.096 -18.221  12.627  0.00  0.00    +0.000 OA
ATOM    355  H   A   B  53      11.681 -17.547  12.247  0.00  0.00    +0.000 HD
ENDBRANCH 340 354
BRANCH 339 356
ATOM    356  O3' A   B  53      10.215 -16.329  14.477  0.00  0.00    +0.000 OA
BRANCH 356 357
ATOM    357  P   A   B  54       8.891 -16.444  15.352  0.00  0.00    +0.000 P 
ATOM    358  OP1 A   B  54       7.999 -15.317  14.976  0.00  0.00    +0.000 OA
BRANCH 357 359
ATOM    359  OP2 A   B  54       9.267 -16.639  16.773  0.00  0.00    +0.000 OA
ATOM    360  H   A   B  54       9.849 -17.411  16.850  0.00  0.00    +0.000 HD
ENDBRANCH 357 359
BRANCH 357 361
ATOM    361  O5' A   B  54       8.227 -17.798  14.829  0.00  0.00    +0.000 OA
BRANCH 361 362
ATOM    362  C5' A   B  54       7.852 -17.944  13.463  0.00  0.00    +0.000 C 
BRANCH 362 363
ATOM    363  C4' A   B  54       7.569 -19.393  13.136  0.00  0.00    +0.000 C 
ATOM    364  O4' A   B  54       8.765 -20.192  13.344  0.00  0.00    +0.000 OA
ATOM    365  C3' A   B  54       6.523 -20.068  13.997  0.00  0.00    +0.000 C 
ATOM    366  C2' A   B  54       6.879 -21.540  13.835  0.00  0.00    +0.000 C 
ATOM    367  C1' A   B  54       8.407 -21.478  13.808  0.00  0.00    +0.000 C 
BRANCH 367 368
ATOM    368  N9  A   B  54       8.997 -21.682  15.140  0.00  0.00    +0.000 N 
ATOM    369  C8  A   B  54       9.505 -20.737  15.995  0.00  0.00    +0.000 A 
ATOM    370  N7  A   B  54       9.968 -21.239  17.116  0.00  0.00    +0.000 NA
ATOM    371  C5  A   B  54       9.753 -22.604  16.990  0.00  0.00    +0.000 A 
ATOM    372  C6  A   B  54      10.022 -23.691  17.836  0.00  0.00    +0.000 A 
ATOM    373  N6  A   B  54      10.596 -23.560  19.040  0.00  0.00    +0.000 N 
ATOM    374  N1  A   B  54       9.680 -24.922  17.412  0.00  0.00    +0.000 NA
ATOM    375  C2  A   B  54       9.106 -25.051  16.211  0.00  0.00    +0.000 A 
ATOM    376  N3  A   B  54       8.801 -24.106  15.319  0.00  0.00    +0.000 NA
ATOM    377  C4  A   B  54       9.154 -22.891  15.776  0.00  0.00    +0.000 A 
ATOM    378  H   A   B  54      10.853 -22.668  19.368  0.00  0.00    +0.000 HD
ATOM    379  H   A   B  54      10.760 -24.356  19.596  0.00  0.00    +0.000 HD
ENDBRANCH 367 368
BRANCH 366 380
ATOM    380  O2' A   B  54       6.418 -22.061  12.597  0.00  0.00    +0.000 OA
ATOM    381  H   A   B  54       6.778 -21.531  11.869  0.00  0.00    +0.000 HD
ENDBRANCH 366 380
BRANCH 365 382
ATOM    382  O3' A   B  54       5.197 -19.755  13.588  0.00  0.00    +0.000 OA
BRANCH 382 383
ATOM    383  P   A   B  55       4.015 -19.690  14.659  0.00  0.00    +0.000 P 
ATOM    384  OP1 A   B  55       2.818 -19.117  13.983  0.00  0.00    +0.000 OA
BRANCH 383 385
ATOM    385  OP2 A   B  55       4.526 -19.061  15.902  0.00  0.00    +0.000 OA
ATOM    386  H   A   B  55       4.711 -18.123  15.737  0.00  0.00    +0.000 HD
ENDBRANCH 383 385
BRANCH 383 387
ATOM    387  O5' A   B  55       3.723 -21.225  14.968  0.00  0.00    +0.000 OA
BRANCH 387 388
ATOM    388  C5' A   B  55       3.305 -22.109  13.933  0.00  0.00    +0.000 C 
BRANCH 388 389
ATOM    389  C4' A   B  55       3.334 -23.543  14.405  0.00  0.00    +0.000 C 
ATOM    390  O4' A   B  55       4.699 -23.939  14.706  0.00  0.00    +0.000 OA
ATOM    391  C3' A   B  55       2.579 -23.823  15.686  0.00  0.00    +0.000 C 
ATOM    392  C2' A   B  55       3.243 -25.101  16.173  0.00  0.00    +0.000 C 
ATOM    393  C1' A   B  55       4.703 -24.848  15.789  0.00  0.00    +0.000 C 
BRANCH 393 394
ATOM    394  N9  A   B  55       5.479 -24.263  16.893  0.00  0.00    +0.000 N 
ATOM    395  C8  A   B  55       5.821 -22.948  17.084  0.00  0.00    +0.000 A 
ATOM    396  N7  A   B  55       6.528 -22.743  18.170  0.00  0.00    +0.000 NA
ATOM    397  C5  A   B  55       6.662 -24.005  18.729  0.00  0.00    +0.000 A 
ATOM    398  C6  A   B  55       7.303 -24.466  19.890  0.00  0.00    +0.000 A 
ATOM    399  N6  A   B  55       7.960 -23.659  20.734  0.00  0.00    +0.000 N 
ATOM    400  N1  A   B  55       7.246 -25.783  20.161  0.00  0.00    +0.000 NA
ATOM    401  C2  A   B  55       6.589 -26.585  19.316  0.00  0.00    +0.000 A 
ATOM    402  N3  A   B  55       5.947 -26.271  18.191  0.00  0.00    +0.000 NA
ATOM    403  C4  A   B  55       6.020 -24.951  17.953  0.00  0.00    +0.000 A 
ATOM    404  H   A   B  55       8.012 -22.693  20.551  0.00  0.00    +0.000 HD
ATOM    405  H   A   B  55       8.391 -24.032  21.537  0.00  0.00    +0.000 HD
ENDBRANCH 393 394
BRANCH 392 406
ATOM    406  O2' A   B  55       2.773 -26.241  15.470  0.00  0.00    +0.000 OA
ATOM    407  H   A   B  55       2.913 -26.115  14.519  0.00  0.00    +0.000 HD
ENDBRANCH 392 406
BRANCH 391 408
ATOM    408  O3' A   B  55       1.178 -23.949  15.474  0.00  0.00    +0.000 OA
BRANCH 408 409
ATOM    409  P   A   B  56       0.152 -23.446  16.582  0.00  0.00    +0.000 P 
ATOM    410  OP1 A   B  56      -1.208 -23.443  15.979  0.00  0.00    +0.000 OA
BRANCH 409 411
ATOM    411  OP2 A   B  56       0.680 -22.206  17.207  0.00  0.00    +0.000 OA
ATOM    412  H   A   B  56       0.651 -21.481  16.563  0.00  0.00    +0.000 HD
ENDBRANCH 409 411
BRANCH 409 413
ATOM    413  O5' A   B  56       0.217 -24.608  17.668  0.00  0.00    +0.000 OA
BRANCH 413 414
ATOM    414  C5' A   B  56      -0.125 -25.947  17.323  0.00  0.00    +0.000 C 
BRANCH 414 415
ATOM    415  C4' A   B  56       0.239 -26.904  18.434  0.00  0.00    +0.000 C 
ATOM    416  O4' A   B  56       1.682 -26.973  18.578  0.00  0.00    +0.000 OA
ATOM    417  C3' A   B  56      -0.248 -26.521  19.814  0.00  0.00    +0.000 C 
ATOM    418  C2' A   B  56       0.696 -27.304  20.712  0.00  0.00    +0.000 C 
ATOM    419  C1' A   B  56       2.012 -27.181  19.937  0.00  0.00    +0.000 C 
BRANCH 419 420
ATOM    420  N9  A   B  56       2.825 -26.046  20.402  0.00  0.00    +0.000 N 
ATOM    421  C8  A   B  56       2.912 -24.787  19.862  0.00  0.00    +0.000 A 
ATOM    422  N7  A   B  56       3.732 -23.995  20.512  0.00  0.00    +0.000 NA
ATOM    423  C5  A   B  56       4.218 -24.782  21.544  0.00  0.00    +0.000 A 
ATOM    424  C6  A   B  56       5.123 -24.531  22.584  0.00  0.00    +0.000 A 
ATOM    425  N6  A   B  56       5.728 -23.346  22.762  0.00  0.00    +0.000 N 
ATOM    426  N1  A   B  56       5.389 -25.533  23.444  0.00  0.00    +0.000 NA
ATOM    427  C2  A   B  56       4.784 -26.710  23.266  0.00  0.00    +0.000 A 
ATOM    428  N3  A   B  56       3.911 -27.071  22.325  0.00  0.00    +0.000 NA
ATOM    429  C4  A   B  56       3.667 -26.050  21.487  0.00  0.00    +0.000 A 
ATOM    430  H   A   B  56       5.546 -22.602  22.143  0.00  0.00    +0.000 HD
ATOM    431  H   A   B  56       6.354 -23.221  23.511  0.00  0.00    +0.000 HD
ENDBRANCH 419 420
BRANCH 418 432
ATOM    432  O2' A   B  56       0.335 -28.671  20.793  0.00  0.00    +0.000 OA
ATOM    433  H   A   B  56       0.304 -29.051  19.901  0.00  0.00    +0.000 HD
ENDBRANCH 418 432
BRANCH 417 434
ATOM    434  O3' A   B  56      -1.623 -26.830  20.016  0.00  0.00    +0.000 OA
BRANCH 434 435
ATOM    435  P   A   B  57      -2.530 -25.867  20.908  0.00  0.00    +0.000 P 
ATOM    436  OP2 A   B  57      -2.121 -24.455  20.678  0.00  0.00    +0.000 OA
BRANCH 435 437
ATOM    437  OP1 A   B  57      -3.949 -26.263  20.701  0.00  0.00    +0.000 OA
ATOM    438  H   A   B  57      -4.222 -26.029  19.800  0.00  0.00    +0.000 HD
ENDBRANCH 435 437
BRANCH 435 439
ATOM    439  O5' A   B  57      -2.108 -26.262  22.391  0.00  0.00    +0.000 OA
BRANCH 439 440
ATOM    440  C5' A   B  57      -2.258 -27.597  22.850  0.00  0.00    +0.000 C 
BRANCH 440 441
ATOM    441  C4' A   B  57      -1.526 -27.807  24.153  0.00  0.00    +0.000 C 
ATOM    442  O4' A   B  57      -0.094 -27.677  23.943  0.00  0.00    +0.000 OA
ATOM    443  C3' A   B  57      -1.821 -26.802  25.246  0.00  0.00    +0.000 C 
ATOM    444  C2' A   B  57      -0.601 -26.941  26.140  0.00  0.00    +0.000 C 
ATOM    445  C1' A   B  57       0.506 -27.127  25.100  0.00  0.00    +0.000 C 
BRANCH 445 446
ATOM    446  N9  A   B  57       1.142 -25.849  24.740  0.00  0.00    +0.000 N 
ATOM    447  C8  A   B  57       0.875 -25.041  23.664  0.00  0.00    +0.000 A 
ATOM    448  N7  A   B  57       1.615 -23.957  23.630  0.00  0.00    +0.000 NA
ATOM    449  C5  A   B  57       2.420 -24.058  24.754  0.00  0.00    +0.000 A 
ATOM    450  C6  A   B  57       3.418 -23.230  25.284  0.00  0.00    +0.000 A 
ATOM    451  N1  A   B  57       4.022 -23.623  26.419  0.00  0.00    +0.000 NA
ATOM    452  C2  A   B  57       3.648 -24.775  26.981  0.00  0.00    +0.000 A 
ATOM    453  N3  A   B  57       2.723 -25.644  26.578  0.00  0.00    +0.000 NA
ATOM    454  C4  A   B  57       2.138 -25.220  25.447  0.00  0.00    +0.000 A 
BRANCH 450 455
ATOM    455  N6  A   B  57       3.790 -22.069  24.721  0.00  0.00    +0.000 N 
ATOM    456  H   A   B  57       3.359 -21.765  23.890  0.00  0.00    +0.000 HD
ATOM    457  H   A   B  57       4.494 -21.522  25.139  0.00  0.00    +0.000 HD
ENDBRANCH 450 455
ENDBRANCH 445 446
BRANCH 444 458
ATOM    458  O2' A   B  57      -0.671 -28.097  26.953  0.00  0.00    +0.000 OA
ATOM    459  H   A   B  57      -0.786 -28.880  26.392  0.00  0.00    +0.000 HD
ENDBRANCH 444 458
BRANCH 443 460
ATOM    460  O3' A   B  57      -3.052 -27.054  25.906  0.00  0.00    +0.000 OA
BRANCH 460 461
ATOM    461  P   C   B  58      -3.944 -25.834  26.402  0.00  0.00    +0.000 P 
ATOM    462  OP2 C   B  58      -3.779 -24.697  25.455  0.00  0.00    +0.000 OA
BRANCH 461 463
ATOM    463  OP1 C   B  58      -5.298 -26.359  26.689  0.00  0.00    +0.000 OA
ATOM    464  H   C   B  58      -5.727 -26.619  25.859  0.00  0.00    +0.000 HD
ENDBRANCH 461 463
BRANCH 461 465
ATOM    465  O5' C   B  58      -3.259 -25.414  27.774  0.00  0.00    +0.000 OA
BRANCH 465 466
ATOM    466  C5' C   B  58      -3.067 -26.363  28.809  0.00  0.00    +0.000 C 
BRANCH 466 467
ATOM    467  C4' C   B  58      -2.109 -25.848  29.851  0.00  0.00    +0.000 C 
ATOM    468  O4' C   B  58      -0.792 -25.662  29.266  0.00  0.00    +0.000 OA
ATOM    469  C3' C   B  58      -2.434 -24.492  30.435  0.00  0.00    +0.000 C 
ATOM    470  C2' C   B  58      -1.086 -24.042  30.978  0.00  0.00    +0.000 C 
ATOM    471  C1' C   B  58      -0.142 -24.576  29.893  0.00  0.00    +0.000 C 
BRANCH 471 472
ATOM    472  N1  C   B  58       0.176 -23.552  28.869  0.00  0.00    +0.000 N 
ATOM    473  C2  C   B  58       1.178 -22.617  29.153  0.00  0.00    +0.000 A 
ATOM    474  O2  C   B  58       1.770 -22.683  30.246  0.00  0.00    +0.000 OA
ATOM    475  N3  C   B  58       1.481 -21.666  28.239  0.00  0.00    +0.000 NA
ATOM    476  C4  C   B  58       0.827 -21.626  27.076  0.00  0.00    +0.000 A 
ATOM    477  N4  C   B  58       1.159 -20.669  26.206  0.00  0.00    +0.000 N 
ATOM    478  C5  C   B  58      -0.195 -22.564  26.759  0.00  0.00    +0.000 A 
ATOM    479  C6  C   B  58      -0.487 -23.501  27.673  0.00  0.00    +0.000 A 
ATOM    480  H   C   B  58       0.697 -20.610  25.339  0.00  0.00    +0.000 HD
ATOM    481  H   C   B  58       1.866 -20.022  26.432  0.00  0.00    +0.000 HD
ENDBRANCH 471 472
BRANCH 470 482
ATOM    482  O2' C   B  58      -0.777 -24.663  32.206  0.00  0.00    +0.000 OA
ATOM    483  H   C   B  58      -0.807 -25.626  32.098  0.00  0.00    +0.000 HD
ENDBRANCH 470 482
BRANCH 469 484
ATOM    484  O3' C   B  58      -3.446 -24.555  31.420  0.00  0.00    +0.000 OA
BRANCH 484 485
ATOM    485  P   A   B  59      -4.442 -23.373  31.585  0.00  0.00    +0.000 P 
ATOM    486  OP2 A   B  59      -4.026 -22.246  30.706  0.00  0.00    +0.000 OA
BRANCH 485 487
ATOM    487  OP1 A   B  59      -5.824 -23.901  31.469  0.00  0.00    +0.000 OA
ATOM    488  H   A   B  59      -5.993 -24.167  30.551  0.00  0.00    +0.000 HD
ENDBRANCH 485 487
BRANCH 485 489
ATOM    489  O5' A   B  59      -4.203 -22.948  33.102  0.00  0.00    +0.000 OA
BRANCH 489 490
ATOM    490  C5' A   B  59      -2.999 -22.306  33.506  0.00  0.00    +0.000 C 
BRANCH 490 491
ATOM    491  C4' A   B  59      -3.116 -21.854  34.926  0.00  0.00    +0.000 C 
ATOM    492  O4' A   B  59      -1.946 -21.075  35.291  0.00  0.00    +0.000 OA
ATOM    493  C3' A   B  59      -4.279 -20.924  35.209  0.00  0.00    +0.000 C 
ATOM    494  C2' A   B  59      -3.806 -20.189  36.453  0.00  0.00    +0.000 C 
ATOM    495  C1' A   B  59      -2.324 -20.018  36.141  0.00  0.00    +0.000 C 
BRANCH 495 496
ATOM    496  N9  A   B  59      -2.039 -18.750  35.451  0.00  0.00    +0.000 N 
ATOM    497  C8  A   B  59      -1.683 -18.568  34.140  0.00  0.00    +0.000 A 
ATOM    498  N7  A   B  59      -1.493 -17.306  33.817  0.00  0.00    +0.000 NA
ATOM    499  C5  A   B  59      -1.736 -16.616  34.993  0.00  0.00    +0.000 A 
ATOM    500  C6  A   B  59      -1.703 -15.251  35.311  0.00  0.00    +0.000 A 
ATOM    501  N1  A   B  59      -1.998 -14.896  36.576  0.00  0.00    +0.000 NA
ATOM    502  C2  A   B  59      -2.304 -15.857  37.459  0.00  0.00    +0.000 A 
ATOM    503  N3  A   B  59      -2.369 -17.172  37.278  0.00  0.00    +0.000 NA
ATOM    504  C4  A   B  59      -2.072 -17.491  36.007  0.00  0.00    +0.000 A 
BRANCH 500 505
ATOM    505  N6  A   B  59      -1.393 -14.290  34.431  0.00  0.00    +0.000 N 
ATOM    506  H   A   B  59      -1.174 -14.526  33.501  0.00  0.00    +0.000 HD
ATOM    507  H   A   B  59      -1.384 -13.347  34.714  0.00  0.00    +0.000 HD
ENDBRANCH 500 505
ENDBRANCH 495 496
BRANCH 494 508
ATOM    508  O2' A   B  59      -3.964 -20.967  37.620  0.00  0.00    +0.000 OA
ATOM    509  H   A   B  59      -3.496 -21.810  37.513  0.00  0.00    +0.000 HD
ENDBRANCH 494 508
BRANCH 493 510
ATOM    510  O3' A   B  59      -5.501 -21.626  35.419  0.00  0.00    +0.000 OA
BRANCH 510 511
ATOM    511  P   G   B  60      -6.842 -20.993  34.989  0.00  0.00    +0.000 P 
ATOM    512  OP2 G   B  60      -6.633 -20.163  33.778  0.00  0.00    +0.000 OA
BRANCH 511 513
ATOM    513  OP1 G   B  60      -7.881 -22.053  34.986  0.00  0.00    +0.000 OA
ATOM    514  H   G   B  60      -7.721 -22.660  34.247  0.00  0.00    +0.000 HD
ENDBRANCH 511 513
BRANCH 511 515
ATOM    515  O5' G   B  60      -7.128 -20.018  36.205  0.00  0.00    +0.000 OA
BRANCH 515 516
ATOM    516  C5' G   B  60      -7.194 -20.506  37.539  0.00  0.00    +0.000 C 
BRANCH 516 517
ATOM    517  C4' G   B  60      -7.188 -19.372  38.529  0.00  0.00    +0.000 C 
ATOM    518  O4' G   B  60      -5.938 -18.642  38.443  0.00  0.00    +0.000 OA
ATOM    519  C3' G   B  60      -8.242 -18.308  38.313  0.00  0.00    +0.000 C 
ATOM    520  C2' G   B  60      -7.646 -17.116  39.041  0.00  0.00    +0.000 C 
ATOM    521  C1' G   B  60      -6.170 -17.270  38.695  0.00  0.00    +0.000 C 
BRANCH 521 522
ATOM    522  N9  G   B  60      -5.801 -16.496  37.496  0.00  0.00    +0.000 N 
ATOM    523  C8  G   B  60      -5.596 -16.974  36.227  0.00  0.00    +0.000 A 
ATOM    524  N7  G   B  60      -5.282 -16.037  35.373  0.00  0.00    +0.000 NA
ATOM    525  C5  G   B  60      -5.279 -14.869  36.123  0.00  0.00    +0.000 A 
ATOM    526  C6  G   B  60      -5.009 -13.532  35.741  0.00  0.00    +0.000 A 
ATOM    527  O6  G   B  60      -4.712 -13.096  34.619  0.00  0.00    +0.000 OA
ATOM    528  N1  G   B  60      -5.117 -12.661  36.812  0.00  0.00    +0.000 NA
ATOM    529  C2  G   B  60      -5.442 -13.030  38.093  0.00  0.00    +0.000 A 
ATOM    530  N2  G   B  60      -5.498 -12.043  38.998  0.00  0.00    +0.000 N 
ATOM    531  N3  G   B  60      -5.697 -14.272  38.466  0.00  0.00    +0.000 N 
ATOM    532  C4  G   B  60      -5.596 -15.137  37.436  0.00  0.00    +0.000 A 
ATOM    533  H   G   B  60      -5.309 -11.116  38.727  0.00  0.00    +0.000 HD
ATOM    534  H   G   B  60      -5.728 -12.245  39.934  0.00  0.00    +0.000 HD
ATOM    535  H   G   B  60      -5.932 -14.534  39.385  0.00  0.00    +0.000 HD
ENDBRANCH 521 522
BRANCH 520 536
ATOM    536  O2' G   B  60      -7.808 -17.221  40.441  0.00  0.00    +0.000 OA
ATOM    537  H   G   B  60      -7.418 -18.053  40.750  0.00  0.00    +0.000 HD
ENDBRANCH 520 536
BRANCH 519 538
ATOM    538  O3' G   B  60      -9.514 -18.704  38.802  0.00  0.00    +0.000 OA
BRANCH 538 539
ATOM    539  P   A   B  61     -10.815 -18.131  38.136  0.00  0.00    +0.000 P 
ATOM    540  OP2 A   B  61     -10.540 -17.831  36.708  0.00  0.00    +0.000 OA
BRANCH 539 541
ATOM    541  OP1 A   B  61     -11.949 -19.017  38.499  0.00  0.00    +0.000 OA
ATOM    542  H   A   B  61     -11.854 -19.867  38.042  0.00  0.00    +0.000 HD
ENDBRANCH 539 541
BRANCH 539 543
ATOM    543  O5' A   B  61     -11.003 -16.752  38.900  0.00  0.00    +0.000 OA
BRANCH 543 544
ATOM    544  C5' A   B  61     -11.098 -16.716  40.317  0.00  0.00    +0.000 C 
BRANCH 544 545
ATOM    545  C4' A   B  61     -11.197 -15.301  40.816  0.00  0.00    +0.000 C 
ATOM    546  O4' A   B  61      -9.911 -14.638  40.704  0.00  0.00    +0.000 OA
ATOM    547  C3' A   B  61     -12.133 -14.394  40.048  0.00  0.00    +0.000 C 
ATOM    548  C2' A   B  61     -11.619 -13.015  40.419  0.00  0.00    +0.000 C 
ATOM    549  C1' A   B  61     -10.112 -13.261  40.450  0.00  0.00    +0.000 C 
BRANCH 549 550
ATOM    550  N9  A   B  61      -9.469 -12.918  39.172  0.00  0.00    +0.000 N 
ATOM    551  C8  A   B  61      -9.038 -13.765  38.186  0.00  0.00    +0.000 A 
ATOM    552  N7  A   B  61      -8.503 -13.149  37.159  0.00  0.00    +0.000 NA
ATOM    553  C5  A   B  61      -8.585 -11.805  37.494  0.00  0.00    +0.000 A 
ATOM    554  C6  A   B  61      -8.190 -10.637  36.825  0.00  0.00    +0.000 A 
ATOM    555  N1  A   B  61      -8.416  -9.460  37.432  0.00  0.00    +0.000 NA
ATOM    556  C2  A   B  61      -9.000  -9.463  38.639  0.00  0.00    +0.000 A 
ATOM    557  N3  A   B  61      -9.415 -10.493  39.368  0.00  0.00    +0.000 NA
ATOM    558  C4  A   B  61      -9.177 -11.650  38.730  0.00  0.00    +0.000 A 
BRANCH 554 559
ATOM    559  N6  A   B  61      -7.607 -10.634  35.619  0.00  0.00    +0.000 N 
ATOM    560  H   A   B  61      -7.351  -9.782  35.198  0.00  0.00    +0.000 HD
ATOM    561  H   A   B  61      -7.434 -11.484  35.154  0.00  0.00    +0.000 HD
ENDBRANCH 554 559
ENDBRANCH 549 550
BRANCH 548 562
ATOM    562  O2' A   B  61     -12.052 -12.627  41.708  0.00  0.00    +0.000 OA
ATOM    563  H   A   B  61     -11.777 -13.294  42.356  0.00  0.00    +0.000 HD
ENDBRANCH 548 562
BRANCH 547 564
ATOM    564  O3' A   B  61     -13.496 -14.611  40.388  0.00  0.00    +0.000 OA
BRANCH 564 565
ATOM    565  P   C   B  62     -14.600 -14.481  39.273  0.00  0.00    +0.000 P 
ATOM    566  OP2 C   B  62     -14.072 -14.990  37.981  0.00  0.00    +0.000 OA
BRANCH 565 567
ATOM    567  OP1 C   B  62     -15.857 -15.043  39.829  0.00  0.00    +0.000 OA
ATOM    568  H   C   B  62     -16.561 -14.979  39.165  0.00  0.00    +0.000 HD
ENDBRANCH 565 567
BRANCH 565 569
ATOM    569  O5' C   B  62     -14.772 -12.906  39.148  0.00  0.00    +0.000 OA
BRANCH 569 570
ATOM    570  C5' C   B  62     -15.000 -12.105  40.297  0.00  0.00    +0.000 C 
BRANCH 570 571
ATOM    571  C4' C   B  62     -14.799 -10.646  39.985  0.00  0.00    +0.000 C 
ATOM    572  O4' C   B  62     -13.404 -10.389  39.676  0.00  0.00    +0.000 OA
ATOM    573  C3' C   B  62     -15.534 -10.125  38.776  0.00  0.00    +0.000 C 
ATOM    574  C2' C   B  62     -14.739  -8.873  38.425  0.00  0.00    +0.000 C 
ATOM    575  C1' C   B  62     -13.313  -9.338  38.736  0.00  0.00    +0.000 C 
BRANCH 575 576
ATOM    576  N1  C   B  62     -12.601  -9.828  37.535  0.00  0.00    +0.000 N 
ATOM    577  C2  C   B  62     -11.967  -8.897  36.704  0.00  0.00    +0.000 A 
ATOM    578  O2  C   B  62     -12.020  -7.695  37.002  0.00  0.00    +0.000 OA
ATOM    579  N3  C   B  62     -11.313  -9.327  35.601  0.00  0.00    +0.000 NA
ATOM    580  C4  C   B  62     -11.272 -10.627  35.311  0.00  0.00    +0.000 A 
ATOM    581  N4  C   B  62     -10.616 -11.002  34.211  0.00  0.00    +0.000 N 
ATOM    582  C5  C   B  62     -11.907 -11.595  36.139  0.00  0.00    +0.000 A 
ATOM    583  C6  C   B  62     -12.551 -11.159  37.228  0.00  0.00    +0.000 A 
ATOM    584  H   C   B  62     -10.179 -10.326  33.644  0.00  0.00    +0.000 HD
ATOM    585  H   C   B  62     -10.569 -11.955  33.967  0.00  0.00    +0.000 HD
ENDBRANCH 575 576
BRANCH 574 586
ATOM    586  O2' C   B  62     -15.068  -7.788  39.266  0.00  0.00    +0.000 OA
ATOM    587  H   C   B  62     -14.932  -8.044  40.192  0.00  0.00    +0.000 HD
ENDBRANCH 574 586
BRANCH 573 588
ATOM    588  O3' C   B  62     -16.905  -9.879  39.047  0.00  0.00    +0.000 OA
BRANCH 588 589
ATOM    589  P   U   B  63     -17.980 -10.083  37.922  0.00  0.00    +0.000 P 
ATOM    590  OP2 U   B  63     -17.375 -10.886  36.830  0.00  0.00    +0.000 OA
BRANCH 589 591
ATOM    591  OP1 U   B  63     -19.238 -10.536  38.563  0.00  0.00    +0.000 OA
ATOM    592  H   U   B  63     -19.918 -10.668  37.884  0.00  0.00    +0.000 HD
ENDBRANCH 589 591
BRANCH 589 593
ATOM    593  O5' U   B  63     -18.194  -8.600  37.389  0.00  0.00    +0.000 OA
BRANCH 593 594
ATOM    594  C5' U   B  63     -18.383  -7.525  38.285  0.00  0.00    +0.000 C 
BRANCH 594 595
ATOM    595  C4' U   B  63     -18.076  -6.206  37.625  0.00  0.00    +0.000 C 
ATOM    596  O4' U   B  63     -16.642  -6.058  37.459  0.00  0.00    +0.000 OA
ATOM    597  C3' U   B  63     -18.623  -6.027  36.229  0.00  0.00    +0.000 C 
ATOM    598  C2' U   B  63     -17.723  -4.933  35.660  0.00  0.00    +0.000 C 
ATOM    599  C1' U   B  63     -16.378  -5.280  36.310  0.00  0.00    +0.000 C 
BRANCH 599 600
ATOM    600  N1  U   B  63     -15.478  -6.037  35.417  0.00  0.00    +0.000 N 
ATOM    601  C2  U   B  63     -14.548  -5.307  34.696  0.00  0.00    +0.000 A 
ATOM    602  O2  U   B  63     -14.456  -4.098  34.771  0.00  0.00    +0.000 OA
ATOM    603  N3  U   B  63     -13.728  -6.052  33.882  0.00  0.00    +0.000 N 
ATOM    604  C4  U   B  63     -13.740  -7.420  33.721  0.00  0.00    +0.000 A 
ATOM    605  O4  U   B  63     -12.938  -7.942  32.951  0.00  0.00    +0.000 OA
ATOM    606  C5  U   B  63     -14.729  -8.097  34.499  0.00  0.00    +0.000 A 
ATOM    607  C6  U   B  63     -15.543  -7.399  35.300  0.00  0.00    +0.000 A 
ATOM    608  H   U   B  63     -13.060  -5.554  33.357  0.00  0.00    +0.000 HD
ENDBRANCH 599 600
BRANCH 598 609
ATOM    609  O2' U   B  63     -18.125  -3.648  36.093  0.00  0.00    +0.000 OA
ATOM    610  H   U   B  63     -18.139  -3.623  37.063  0.00  0.00    +0.000 HD
ENDBRANCH 598 609
BRANCH 597 611
ATOM    611  O3' U   B  63     -20.002  -5.686  36.239  0.00  0.00    +0.000 OA
BRANCH 611 612
ATOM    612  P   A   B  64     -21.004  -6.385  35.246  0.00  0.00    +0.000 P 
ATOM    613  OP2 A   B  64     -20.406  -7.657  34.777  0.00  0.00    +0.000 OA
BRANCH 612 614
ATOM    614  OP1 A   B  64     -22.349  -6.391  35.870  0.00  0.00    +0.000 OA
ATOM    615  H   A   B  64     -22.981  -6.819  35.271  0.00  0.00    +0.000 HD
ENDBRANCH 612 614
BRANCH 612 616
ATOM    616  O5' A   B  64     -21.032  -5.363  34.024  0.00  0.00    +0.000 OA
BRANCH 616 617
ATOM    617  C5' A   B  64     -21.331  -3.993  34.230  0.00  0.00    +0.000 C 
BRANCH 617 618
ATOM    618  C4' A   B  64     -20.714  -3.145  33.144  0.00  0.00    +0.000 C 
ATOM    619  O4' A   B  64     -19.268  -3.227  33.227  0.00  0.00    +0.000 OA
ATOM    620  C3' A   B  64     -21.024  -3.571  31.725  0.00  0.00    +0.000 C 
ATOM    621  C2' A   B  64     -19.858  -2.978  30.940  0.00  0.00    +0.000 C 
ATOM    622  C1' A   B  64     -18.705  -3.106  31.942  0.00  0.00    +0.000 C 
BRANCH 622 623
ATOM    623  N9  A   B  64     -17.851  -4.279  31.692  0.00  0.00    +0.000 N 
ATOM    624  C8  A   B  64     -18.146  -5.602  31.863  0.00  0.00    +0.000 A 
ATOM    625  N7  A   B  64     -17.161  -6.405  31.546  0.00  0.00    +0.000 NA
ATOM    626  C5  A   B  64     -16.144  -5.550  31.141  0.00  0.00    +0.000 A 
ATOM    627  C6  A   B  64     -14.832  -5.776  30.682  0.00  0.00    +0.000 A 
ATOM    628  N1  A   B  64     -14.082  -4.707  30.364  0.00  0.00    +0.000 NA
ATOM    629  C2  A   B  64     -14.616  -3.492  30.501  0.00  0.00    +0.000 A 
ATOM    630  N3  A   B  64     -15.833  -3.149  30.920  0.00  0.00    +0.000 NA
ATOM    631  C4  A   B  64     -16.556  -4.236  31.227  0.00  0.00    +0.000 A 
BRANCH 627 632
ATOM    632  N6  A   B  64     -14.300  -6.999  30.543  0.00  0.00    +0.000 N 
ATOM    633  H   A   B  64     -13.376  -7.100  30.217  0.00  0.00    +0.000 HD
ATOM    634  H   A   B  64     -14.833  -7.796  30.766  0.00  0.00    +0.000 HD
ENDBRANCH 627 632
ENDBRANCH 622 623
BRANCH 621 635
ATOM    635  O2' A   B  64     -20.065  -1.606  30.644  0.00  0.00    +0.000 OA
ATOM    636  H   A   B  64     -20.212  -1.116  31.468  0.00  0.00    +0.000 HD
ENDBRANCH 621 635
BRANCH 620 637
ATOM    637  O3' A   B  64     -22.288  -3.095  31.285  0.00  0.00    +0.000 OA
BRANCH 637 638
ATOM    638  P   C   B  65     -23.531  -4.056  31.222  0.00  0.00    +0.000 P 
ATOM    639  OP2 C   B  65     -23.076  -5.464  31.218  0.00  0.00    +0.000 OA
BRANCH 638 640
ATOM    640  OP1 C   B  65     -24.489  -3.598  32.263  0.00  0.00    +0.000 OA
ATOM    641  H   C   B  65     -25.273  -4.169  32.255  0.00  0.00    +0.000 HD
ENDBRANCH 638 640
BRANCH 638 642
ATOM    642  O5' C   B  65     -24.149  -3.736  29.785  0.00  0.00    +0.000 OA
BRANCH 642 643
ATOM    643  C5' C   B  65     -23.863  -4.543  28.661  0.00  0.00    +0.000 C 
BRANCH 643 644
ATOM    644  C4' C   B  65     -23.936  -3.745  27.383  0.00  0.00    +0.000 C 
ATOM    645  O4' C   B  65     -25.254  -3.176  27.223  0.00  0.00    +0.000 OA
ATOM    646  C3' C   B  65     -23.013  -2.549  27.307  0.00  0.00    +0.000 C 
ATOM    647  C2' C   B  65     -23.693  -1.675  26.254  0.00  0.00    +0.000 C 
ATOM    648  C1' C   B  65     -25.168  -1.925  26.570  0.00  0.00    +0.000 C 
BRANCH 648 649
ATOM    649  N1  C   B  65     -25.764  -0.883  27.440  0.00  0.00    +0.000 N 
ATOM    650  C2  C   B  65     -25.993   0.396  26.918  0.00  0.00    +0.000 A 
ATOM    651  O2  C   B  65     -25.682   0.633  25.736  0.00  0.00    +0.000 OA
ATOM    652  N3  C   B  65     -26.544   1.349  27.703  0.00  0.00    +0.000 NA
ATOM    653  C4  C   B  65     -26.863   1.061  28.968  0.00  0.00    +0.000 A 
ATOM    654  N4  C   B  65     -27.401   2.034  29.710  0.00  0.00    +0.000 N 
ATOM    655  C5  C   B  65     -26.649  -0.228  29.527  0.00  0.00    +0.000 A 
ATOM    656  C6  C   B  65     -26.103  -1.168  28.732  0.00  0.00    +0.000 A 
ATOM    657  H   C   B  65     -27.548   2.926  29.320  0.00  0.00    +0.000 HD
ATOM    658  H   C   B  65     -27.650   1.859  30.646  0.00  0.00    +0.000 HD
ENDBRANCH 648 649
BRANCH 647 659
ATOM    659  O2' C   B  65     -23.413  -2.112  24.940  0.00  0.00    +0.000 OA
ATOM    660  H   C   B  65     -23.678  -3.040  24.845  0.00  0.00    +0.000 HD
ENDBRANCH 647 659
BRANCH 646 661
ATOM    661  O3' C   B  65     -21.694  -2.917  26.938  0.00  0.00    +0.000 OA
BRANCH 661 662
ATOM    662  P   A   B  66     -20.489  -2.335  27.710  0.00  0.00    +0.000 P 
ATOM    663  OP1 A   B  66     -19.570  -3.476  28.008  0.00  0.00    +0.000 OA
BRANCH 662 664
ATOM    664  OP2 A   B  66     -20.930  -1.465  28.822  0.00  0.00    +0.000 OA
ATOM    665  H   A   B  66     -21.518  -0.774  28.478  0.00  0.00    +0.000 HD
ENDBRANCH 662 664
BRANCH 662 666
ATOM    666  O5' A   B  66     -19.797  -1.415  26.596  0.00  0.00    +0.000 OA
BRANCH 666 667
ATOM    667  C5' A   B  66     -19.731  -0.004  26.714  0.00  0.00    +0.000 C 
BRANCH 667 668
ATOM    668  C4' A   B  66     -18.427   0.495  26.141  0.00  0.00    +0.000 C 
ATOM    669  O4' A   B  66     -17.347   0.122  27.035  0.00  0.00    +0.000 OA
ATOM    670  C3' A   B  66     -18.038  -0.100  24.798  0.00  0.00    +0.000 C 
ATOM    671  C2' A   B  66     -16.522  -0.014  24.816  0.00  0.00    +0.000 C 
ATOM    672  C1' A   B  66     -16.222  -0.300  26.287  0.00  0.00    +0.000 C 
BRANCH 672 673
ATOM    673  N9  A   B  66     -15.992  -1.723  26.569  0.00  0.00    +0.000 N 
ATOM    674  C8  A   B  66     -16.786  -2.545  27.326  0.00  0.00    +0.000 A 
ATOM    675  N7  A   B  66     -16.336  -3.772  27.417  0.00  0.00    +0.000 NA
ATOM    676  C5  A   B  66     -15.168  -3.756  26.677  0.00  0.00    +0.000 A 
ATOM    677  C6  A   B  66     -14.226  -4.748  26.384  0.00  0.00    +0.000 A 
ATOM    678  N6  A   B  66     -14.321  -6.011  26.827  0.00  0.00    +0.000 N 
ATOM    679  N1  A   B  66     -13.174  -4.407  25.612  0.00  0.00    +0.000 NA
ATOM    680  C2  A   B  66     -13.083  -3.145  25.172  0.00  0.00    +0.000 A 
ATOM    681  N3  A   B  66     -13.905  -2.124  25.378  0.00  0.00    +0.000 NA
ATOM    682  C4  A   B  66     -14.940  -2.499  26.149  0.00  0.00    +0.000 A 
ATOM    683  H   A   B  66     -13.628  -6.669  26.590  0.00  0.00    +0.000 HD
ATOM    684  H   A   B  66     -15.083  -6.279  27.389  0.00  0.00    +0.000 HD
ENDBRANCH 672 673
BRANCH 671 685
ATOM    685  O2' A   B  66     -16.067   1.285  24.487  0.00  0.00    +0.000 OA
ATOM    686  H   A   B  66     -16.463   1.930  25.094  0.00  0.00    +0.000 HD
ENDBRANCH 671 685
BRANCH 670 687
ATOM    687  O3' A   B  66     -18.635   0.609  23.715  0.00  0.00    +0.000 OA
BRANCH 687 688
ATOM    688  P   A   B  67     -19.308  -0.167  22.509  0.00  0.00    +0.000 P 
ATOM    689  OP1 A   B  67     -20.021   0.826  21.669  0.00  0.00    +0.000 OA
BRANCH 688 690
ATOM    690  OP2 A   B  67     -20.044  -1.335  23.058  0.00  0.00    +0.000 OA
ATOM    691  H   A   B  67     -20.463  -1.823  22.332  0.00  0.00    +0.000 HD
ENDBRANCH 688 690
BRANCH 688 692
ATOM    692  O5' A   B  67     -18.061  -0.710  21.683  0.00  0.00    +0.000 OA
BRANCH 692 693
ATOM    693  C5' A   B  67     -17.162   0.193  21.044  0.00  0.00    +0.000 C 
BRANCH 693 694
ATOM    694  C4' A   B  67     -15.920  -0.529  20.581  0.00  0.00    +0.000 C 
ATOM    695  O4' A   B  67     -15.185  -1.023  21.730  0.00  0.00    +0.000 OA
ATOM    696  C3' A   B  67     -16.152  -1.767  19.736  0.00  0.00    +0.000 C 
ATOM    697  C2' A   B  67     -14.865  -2.547  19.945  0.00  0.00    +0.000 C 
ATOM    698  C1' A   B  67     -14.601  -2.275  21.423  0.00  0.00    +0.000 C 
BRANCH 698 699
ATOM    699  N9  A   B  67     -15.212  -3.300  22.284  0.00  0.00    +0.000 N 
ATOM    700  C8  A   B  67     -16.369  -3.208  23.011  0.00  0.00    +0.000 A 
ATOM    701  N7  A   B  67     -16.656  -4.298  23.682  0.00  0.00    +0.000 NA
ATOM    702  C5  A   B  67     -15.620  -5.164  23.375  0.00  0.00    +0.000 A 
ATOM    703  C6  A   B  67     -15.338  -6.482  23.767  0.00  0.00    +0.000 A 
ATOM    704  N6  A   B  67     -16.120  -7.188  24.593  0.00  0.00    +0.000 N 
ATOM    705  N1  A   B  67     -14.222  -7.056  23.274  0.00  0.00    +0.000 NA
ATOM    706  C2  A   B  67     -13.445  -6.347  22.448  0.00  0.00    +0.000 A 
ATOM    707  N3  A   B  67     -13.603  -5.104  22.005  0.00  0.00    +0.000 NA
ATOM    708  C4  A   B  67     -14.724  -4.560  22.514  0.00  0.00    +0.000 A 
ATOM    709  H   A   B  67     -15.874  -8.110  24.835  0.00  0.00    +0.000 HD
ATOM    710  H   A   B  67     -16.941  -6.785  24.958  0.00  0.00    +0.000 HD
ENDBRANCH 698 699
BRANCH 697 711
ATOM    711  O2' A   B  67     -13.799  -2.020  19.178  0.00  0.00    +0.000 OA
ATOM    712  H   A   B  67     -13.681  -1.081  19.391  0.00  0.00    +0.000 HD
ENDBRANCH 697 711
BRANCH 696 713
ATOM    713  O3' A   B  67     -16.421  -1.462  18.373  0.00  0.00    +0.000 OA
BRANCH 713 714
ATOM    714  P   A   B  68     -17.353  -2.408  17.518  0.00  0.00    +0.000 P 
ATOM    715  OP1 A   B  68     -17.654  -1.707  16.244  0.00  0.00    +0.000 OA
BRANCH 714 716
ATOM    716  OP2 A   B  68     -18.465  -2.875  18.384  0.00  0.00    +0.000 OA
ATOM    717  H   A   B  68     -19.049  -3.458  17.874  0.00  0.00    +0.000 HD
ENDBRANCH 714 716
BRANCH 714 718
ATOM    718  O5' A   B  68     -16.425  -3.666  17.184  0.00  0.00    +0.000 OA
BRANCH 718 719
ATOM    719  C5' A   B  68     -15.323  -3.532  16.299  0.00  0.00    +0.000 C 
BRANCH 719 720
ATOM    720  C4' A   B  68     -14.381  -4.711  16.398  0.00  0.00    +0.000 C 
ATOM    721  O4' A   B  68     -13.992  -4.924  17.780  0.00  0.00    +0.000 OA
ATOM    722  C3' A   B  68     -14.929  -6.059  15.977  0.00  0.00    +0.000 C 
ATOM    723  C2' A   B  68     -13.955  -7.010  16.655  0.00  0.00    +0.000 C 
ATOM    724  C1' A   B  68     -13.735  -6.300  17.989  0.00  0.00    +0.000 C 
BRANCH 724 725
ATOM    725  N9  A   B  68     -14.638  -6.813  19.027  0.00  0.00    +0.000 N 
ATOM    726  C8  A   B  68     -15.754  -6.223  19.561  0.00  0.00    +0.000 A 
ATOM    727  N7  A   B  68     -16.346  -6.956  20.475  0.00  0.00    +0.000 NA
ATOM    728  C5  A   B  68     -15.569  -8.103  20.545  0.00  0.00    +0.000 A 
ATOM    729  C6  A   B  68     -15.662  -9.270  21.320  0.00  0.00    +0.000 A 
ATOM    730  N6  A   B  68     -16.633  -9.486  22.217  0.00  0.00    +0.000 N 
ATOM    731  N1  A   B  68     -14.721 -10.220  21.138  0.00  0.00    +0.000 NA
ATOM    732  C2  A   B  68     -13.755 -10.006  20.243  0.00  0.00    +0.000 A 
ATOM    733  N3  A   B  68     -13.560  -8.950  19.455  0.00  0.00    +0.000 NA
ATOM    734  C4  A   B  68     -14.515  -8.025  19.657  0.00  0.00    +0.000 A 
ATOM    735  H   A   B  68     -17.328  -8.805  22.364  0.00  0.00    +0.000 HD
ATOM    736  H   A   B  68     -16.651 -10.326  22.730  0.00  0.00    +0.000 HD
ENDBRANCH 724 725
BRANCH 723 737
ATOM    737  O2' A   B  68     -12.724  -7.088  15.963  0.00  0.00    +0.000 OA
ATOM    738  H   A   B  68     -12.344  -6.200  15.878  0.00  0.00    +0.000 HD
ENDBRANCH 723 737
BRANCH 722 739
ATOM    739  O3' A   B  68     -14.983  -6.224  14.564  0.00  0.00    +0.000 OA
BRANCH 739 740
ATOM    740  P   A   B  69     -15.982  -7.262  13.914  0.00  0.00    +0.000 P 
ATOM    741  OP1 A   B  69     -16.008  -7.018  12.451  0.00  0.00    +0.000 OA
BRANCH 740 742
ATOM    742  OP2 A   B  69     -17.251  -7.243  14.690  0.00  0.00    +0.000 OA
ATOM    743  H   A   B  69     -17.876  -7.876  14.303  0.00  0.00    +0.000 HD
ENDBRANCH 740 742
BRANCH 740 744
ATOM    744  O5' A   B  69     -15.274  -8.667  14.170  0.00  0.00    +0.000 OA
BRANCH 744 745
ATOM    745  C5' A   B  69     -14.032  -8.981  13.549  0.00  0.00    +0.000 C 
BRANCH 745 746
ATOM    746  C4' A   B  69     -13.394 -10.191  14.194  0.00  0.00    +0.000 C 
ATOM    747  O4' A   B  69     -13.308 -10.000  15.630  0.00  0.00    +0.000 OA
ATOM    748  C3' A   B  69     -14.144 -11.501  14.051  0.00  0.00    +0.000 C 
ATOM    749  C2' A   B  69     -13.584 -12.314  15.208  0.00  0.00    +0.000 C 
ATOM    750  C1' A   B  69     -13.456 -11.243  16.287  0.00  0.00    +0.000 C 
BRANCH 750 751
ATOM    751  N9  A   B  69     -14.640 -11.192  17.156  0.00  0.00    +0.000 N 
ATOM    752  C8  A   B  69     -15.633 -10.249  17.186  0.00  0.00    +0.000 A 
ATOM    753  N7  A   B  69     -16.562 -10.490  18.081  0.00  0.00    +0.000 NA
ATOM    754  C5  A   B  69     -16.151 -11.672  18.680  0.00  0.00    +0.000 A 
ATOM    755  C6  A   B  69     -16.700 -12.457  19.707  0.00  0.00    +0.000 A 
ATOM    756  N6  A   B  69     -17.843 -12.152  20.340  0.00  0.00    +0.000 N 
ATOM    757  N1  A   B  69     -16.041 -13.577  20.063  0.00  0.00    +0.000 NA
ATOM    758  C2  A   B  69     -14.905 -13.881  19.428  0.00  0.00    +0.000 A 
ATOM    759  N3  A   B  69     -14.288 -13.224  18.450  0.00  0.00    +0.000 NA
ATOM    760  C4  A   B  69     -14.972 -12.114  18.118  0.00  0.00    +0.000 A 
ATOM    761  H   A   B  69     -18.340 -11.338  20.095  0.00  0.00    +0.000 HD
ATOM    762  H   A   B  69     -18.185 -12.742  21.050  0.00  0.00    +0.000 HD
ENDBRANCH 750 751
BRANCH 749 763
ATOM    763  O2' A   B  69     -12.299 -12.830  14.916  0.00  0.00    +0.000 OA
ATOM    764  H   A   B  69     -11.704 -12.101  14.679  0.00  0.00    +0.000 HD
ENDBRANCH 749 763
BRANCH 748 765
ATOM    765  O3' A   B  69     -13.941 -12.115  12.784  0.00  0.00    +0.000 OA
BRANCH 765 766
ATOM    766  P   A   B  70     -15.109 -12.943  12.106  0.00  0.00    +0.000 P 
ATOM    767  OP1 A   B  70     -14.616 -13.429  10.796  0.00  0.00    +0.000 OA
BRANCH 766 768
ATOM    768  OP2 A   B  70     -16.350 -12.131  12.175  0.00  0.00    +0.000 OA
ATOM    769  H   A   B  70     -16.264 -11.359  11.594  0.00  0.00    +0.000 HD
ENDBRANCH 766 768
BRANCH 766 770
ATOM    770  O5' A   B  70     -15.289 -14.202  13.074  0.00  0.00    +0.000 OA
BRANCH 770 771
ATOM    771  C5' A   B  70     -14.254 -15.160  13.229  0.00  0.00    +0.000 C 
BRANCH 771 772
ATOM    772  C4' A   B  70     -14.506 -16.047  14.428  0.00  0.00    +0.000 C 
ATOM    773  O4' A   B  70     -14.718 -15.228  15.606  0.00  0.00    +0.000 OA
ATOM    774  C3' A   B  70     -15.743 -16.917  14.358  0.00  0.00    +0.000 C 
ATOM    775  C2' A   B  70     -16.043 -17.184  15.827  0.00  0.00    +0.000 C 
ATOM    776  C1' A   B  70     -15.651 -15.851  16.464  0.00  0.00    +0.000 C 
BRANCH 776 777
ATOM    777  N9  A   B  70     -16.796 -14.949  16.650  0.00  0.00    +0.000 N 
ATOM    778  C8  A   B  70     -17.145 -13.859  15.900  0.00  0.00    +0.000 A 
ATOM    779  N7  A   B  70     -18.220 -13.247  16.326  0.00  0.00    +0.000 NA
ATOM    780  C5  A   B  70     -18.609 -13.983  17.433  0.00  0.00    +0.000 A 
ATOM    781  C6  A   B  70     -19.676 -13.849  18.332  0.00  0.00    +0.000 A 
ATOM    782  N6  A   B  70     -20.594 -12.876  18.246  0.00  0.00    +0.000 N 
ATOM    783  N1  A   B  70     -19.776 -14.752  19.325  0.00  0.00    +0.000 NA
ATOM    784  C2  A   B  70     -18.857 -15.720  19.403  0.00  0.00    +0.000 A 
ATOM    785  N3  A   B  70     -17.809 -15.948  18.622  0.00  0.00    +0.000 NA
ATOM    786  C4  A   B  70     -17.740 -15.033  17.643  0.00  0.00    +0.000 A 
ATOM    787  H   A   B  70     -20.536 -12.207  17.526  0.00  0.00    +0.000 HD
ATOM    788  H   A   B  70     -21.326 -12.830  18.903  0.00  0.00    +0.000 HD
ENDBRANCH 776 777
BRANCH 775 789
ATOM    789  O2' A   B  70     -15.216 -18.206  16.360  0.00  0.00    +0.000 OA
ATOM    790  H   A   B  70     -14.284 -17.967  16.234  0.00  0.00    +0.000 HD
ENDBRANCH 775 789
BRANCH 774 791
ATOM    791  O3' A   B  70     -15.509 -18.105  13.613  0.00  0.00    +0.000 OA
BRANCH 791 792
ATOM    792  P   U   B  71     -16.685 -18.801  12.794  0.00  0.00    +0.000 P 
ATOM    793  OP1 U   B  71     -16.074 -19.769  11.851  0.00  0.00    +0.000 OA
BRANCH 792 794
ATOM    794  OP2 U   B  71     -17.597 -17.745  12.274  0.00  0.00    +0.000 OA
ATOM    795  H   U   B  71     -17.142 -17.234  11.586  0.00  0.00    +0.000 HD
ENDBRANCH 792 794
BRANCH 792 796
ATOM    796  O5' U   B  71     -17.459 -19.622  13.920  0.00  0.00    +0.000 OA
BRANCH 796 797
ATOM    797  C5' U   B  71     -16.768 -20.543  14.744  0.00  0.00    +0.000 C 
BRANCH 797 798
ATOM    798  C4' U   B  71     -17.641 -21.020  15.881  0.00  0.00    +0.000 C 
ATOM    799  O4' U   B  71     -18.110 -19.858  16.624  0.00  0.00    +0.000 OA
ATOM    800  C3' U   B  71     -18.879 -21.799  15.447  0.00  0.00    +0.000 C 
ATOM    801  C2' U   B  71     -20.071 -20.961  15.901  0.00  0.00    +0.000 C 
ATOM    802  C1' U   B  71     -19.476 -19.999  16.930  0.00  0.00    +0.000 C 
BRANCH 802 803
ATOM    803  N1  U   B  71     -20.109 -18.672  16.872  0.00  0.00    +0.000 N 
ATOM    804  C2  U   B  71     -20.960 -18.305  17.896  0.00  0.00    +0.000 A 
ATOM    805  O2  U   B  71     -21.190 -19.026  18.855  0.00  0.00    +0.000 OA
ATOM    806  N3  U   B  71     -21.535 -17.067  17.763  0.00  0.00    +0.000 N 
ATOM    807  C4  U   B  71     -21.347 -16.176  16.728  0.00  0.00    +0.000 A 
ATOM    808  O4  U   B  71     -21.938 -15.101  16.747  0.00  0.00    +0.000 OA
ATOM    809  C5  U   B  71     -20.455 -16.627  15.705  0.00  0.00    +0.000 A 
ATOM    810  C6  U   B  71     -19.886 -17.832  15.809  0.00  0.00    +0.000 A 
ATOM    811  H   U   B  71     -22.146 -16.785  18.482  0.00  0.00    +0.000 HD
ENDBRANCH 802 803
BRANCH 801 812
ATOM    812  O2' U   B  71     -21.133 -21.713  16.509  0.00  0.00    +0.000 OA
ATOM    813  H   U   B  71     -20.795 -22.174  17.293  0.00  0.00    +0.000 HD
ENDBRANCH 801 812
BRANCH 800 814
ATOM    814  O3' U   B  71     -18.907 -23.092  16.044  0.00  0.00    +0.000 OA
BRANCH 814 815
ATOM    815  P   C   B  72     -18.621 -24.385  15.200  0.00  0.00    +0.000 P 
ATOM    816  OP2 C   B  72     -17.302 -24.232  14.534  0.00  0.00    +0.000 OA
BRANCH 815 817
ATOM    817  OP1 C   B  72     -18.873 -25.568  16.062  0.00  0.00    +0.000 OA
ATOM    818  H   C   B  72     -18.701 -26.378  15.557  0.00  0.00    +0.000 HD
ENDBRANCH 815 817
BRANCH 815 819
ATOM    819  O5' C   B  72     -19.747 -24.346  14.070  0.00  0.00    +0.000 OA
BRANCH 819 820
ATOM    820  C5' C   B  72     -21.065 -24.821  14.332  0.00  0.00    +0.000 C 
BRANCH 820 821
ATOM    821  C4' C   B  72     -21.990 -24.564  13.171  0.00  0.00    +0.000 C 
ATOM    822  O4' C   B  72     -22.210 -23.134  13.018  0.00  0.00    +0.000 OA
ATOM    823  C3' C   B  72     -21.492 -24.997  11.812  0.00  0.00    +0.000 C 
ATOM    824  C2' C   B  72     -22.350 -24.153  10.878  0.00  0.00    +0.000 C 
ATOM    825  C1' C   B  72     -22.427 -22.832  11.649  0.00  0.00    +0.000 C 
BRANCH 825 826
ATOM    826  N1  C   B  72     -21.406 -21.853  11.204  0.00  0.00    +0.000 N 
ATOM    827  C2  C   B  72     -21.645 -21.118  10.037  0.00  0.00    +0.000 A 
ATOM    828  O2  C   B  72     -22.700 -21.305   9.415  0.00  0.00    +0.000 OA
ATOM    829  N3  C   B  72     -20.724 -20.220   9.615  0.00  0.00    +0.000 NA
ATOM    830  C4  C   B  72     -19.600 -20.044  10.308  0.00  0.00    +0.000 A 
ATOM    831  N4  C   B  72     -18.721 -19.145   9.855  0.00  0.00    +0.000 N 
ATOM    832  C5  C   B  72     -19.331 -20.777  11.497  0.00  0.00    +0.000 A 
ATOM    833  C6  C   B  72     -20.252 -21.664  11.904  0.00  0.00    +0.000 A 
ATOM    834  H   C   B  72     -18.913 -18.641   9.031  0.00  0.00    +0.000 HD
ATOM    835  H   C   B  72     -17.882 -18.987  10.345  0.00  0.00    +0.000 HD
ENDBRANCH 825 826
BRANCH 824 836
ATOM    836  O2' C   B  72     -23.649 -24.684  10.735  0.00  0.00    +0.000 OA
ATOM    837  H   C   B  72     -24.062 -24.767  11.609  0.00  0.00    +0.000 HD
ENDBRANCH 824 836
BRANCH 823 838
ATOM    838  O3' C   B  72     -21.621 -26.395  11.588  0.00  0.00    +0.000 OA
BRANCH 838 839
ATOM    839  P   U   B  73     -20.524 -27.177  10.709  0.00  0.00    +0.000 P 
ATOM    840  OP1 U   B  73     -20.878 -28.615  10.709  0.00  0.00    +0.000 OA
BRANCH 839 841
ATOM    841  OP2 U   B  73     -19.178 -26.747  11.154  0.00  0.00    +0.000 OA
ATOM    842  H   U   B  73     -18.502 -27.209  10.634  0.00  0.00    +0.000 HD
ENDBRANCH 839 841
BRANCH 839 843
ATOM    843  O5' U   B  73     -20.757 -26.612   9.237  0.00  0.00    +0.000 OA
BRANCH 843 844
ATOM    844  C5' U   B  73     -21.967 -26.869   8.535  0.00  0.00    +0.000 C 
BRANCH 844 845
ATOM    845  C4' U   B  73     -22.054 -26.050   7.271  0.00  0.00    +0.000 C 
ATOM    846  O4' U   B  73     -22.013 -24.633   7.593  0.00  0.00    +0.000 OA
ATOM    847  C3' U   B  73     -20.923 -26.231   6.285  0.00  0.00    +0.000 C 
ATOM    848  C2' U   B  73     -21.006 -24.950   5.468  0.00  0.00    +0.000 C 
ATOM    849  C1' U   B  73     -21.374 -23.926   6.545  0.00  0.00    +0.000 C 
BRANCH 849 850
ATOM    850  N1  U   B  73     -20.189 -23.227   7.088  0.00  0.00    +0.000 N 
ATOM    851  C2  U   B  73     -19.647 -22.203   6.328  0.00  0.00    +0.000 A 
ATOM    852  O2  U   B  73     -20.106 -21.864   5.251  0.00  0.00    +0.000 OA
ATOM    853  N3  U   B  73     -18.547 -21.587   6.871  0.00  0.00    +0.000 N 
ATOM    854  C4  U   B  73     -17.947 -21.883   8.074  0.00  0.00    +0.000 A 
ATOM    855  O4  U   B  73     -16.960 -21.237   8.429  0.00  0.00    +0.000 OA
ATOM    856  C5  U   B  73     -18.563 -22.951   8.803  0.00  0.00    +0.000 A 
ATOM    857  C6  U   B  73     -19.638 -23.571   8.297  0.00  0.00    +0.000 A 
ATOM    858  H   U   B  73     -18.145 -20.858   6.345  0.00  0.00    +0.000 HD
ENDBRANCH 849 850
BRANCH 848 859
ATOM    859  O2' U   B  73     -22.039 -24.999   4.508  0.00  0.00    +0.000 OA
ATOM    860  H   U   B  73     -22.883 -25.182   4.950  0.00  0.00    +0.000 HD
ENDBRANCH 848 859
BRANCH 847 861
ATOM    861  O3' U   B  73     -21.057 -27.408   5.501  0.00  0.00    +0.000 OA
BRANCH 861 862
ATOM    862  P   C   B  74     -19.760 -28.288   5.145  0.00  0.00    +0.000 P 
ATOM    863  OP1 C   B  74     -20.213 -29.465   4.369  0.00  0.00    +0.000 OA
BRANCH 862 864
ATOM    864  OP2 C   B  74     -18.967 -28.480   6.384  0.00  0.00    +0.000 OA
ATOM    865  H   C   B  74     -18.180 -29.010   6.185  0.00  0.00    +0.000 HD
ENDBRANCH 862 864
BRANCH 862 866
ATOM    866  O5' C   B  74     -18.923 -27.340   4.171  0.00  0.00    +0.000 OA
BRANCH 866 867
ATOM    867  C5' C   B  74     -19.428 -26.964   2.897  0.00  0.00    +0.000 C 
BRANCH 867 868
ATOM    868  C4' C   B  74     -18.573 -25.889   2.272  0.00  0.00    +0.000 C 
ATOM    869  O4' C   B  74     -18.571 -24.710   3.122  0.00  0.00    +0.000 OA
ATOM    870  C3' C   B  74     -17.109 -26.222   2.103  0.00  0.00    +0.000 C 
ATOM    871  C2' C   B  74     -16.460 -24.846   2.045  0.00  0.00    +0.000 C 
ATOM    872  C1' C   B  74     -17.321 -24.058   3.035  0.00  0.00    +0.000 C 
BRANCH 872 873
ATOM    873  N1  C   B  74     -16.727 -23.984   4.386  0.00  0.00    +0.000 N 
ATOM    874  C2  C   B  74     -15.740 -23.024   4.635  0.00  0.00    +0.000 A 
ATOM    875  O2  C   B  74     -15.393 -22.269   3.714  0.00  0.00    +0.000 OA
ATOM    876  N3  C   B  74     -15.189 -22.939   5.870  0.00  0.00    +0.000 NA
ATOM    877  C4  C   B  74     -15.591 -23.766   6.838  0.00  0.00    +0.000 A 
ATOM    878  N4  C   B  74     -15.021 -23.643   8.039  0.00  0.00    +0.000 N 
ATOM    879  C5  C   B  74     -16.595 -24.753   6.613  0.00  0.00    +0.000 A 
ATOM    880  C6  C   B  74     -17.131 -24.825   5.386  0.00  0.00    +0.000 A 
ATOM    881  H   C   B  74     -14.328 -22.959   8.187  0.00  0.00    +0.000 HD
ATOM    882  H   C   B  74     -15.293 -24.236   8.776  0.00  0.00    +0.000 HD
ENDBRANCH 872 873
BRANCH 871 883
ATOM    883  O2' C   B  74     -16.575 -24.265   0.764  0.00  0.00    +0.000 OA
ATOM    884  H   C   B  74     -17.511 -24.219   0.513  0.00  0.00    +0.000 HD
ENDBRANCH 871 883
BRANCH 870 885
ATOM    885  O3' C   B  74     -16.868 -27.004   0.940  0.00  0.00    +0.000 OA
BRANCH 885 886
ATOM    886  P   C   B  75     -15.845 -28.237   0.974  0.00  0.00    +0.000 P 
ATOM    887  OP1 C   B  75     -15.950 -28.947  -0.320  0.00  0.00    +0.000 OA
BRANCH 886 888
ATOM    888  OP2 C   B  75     -16.047 -28.984   2.244  0.00  0.00    +0.000 OA
ATOM    889  H   C   B  75     -16.910 -29.426   2.225  0.00  0.00    +0.000 HD
ENDBRANCH 886 888
BRANCH 886 890
ATOM    890  O5' C   B  75     -14.417 -27.528   1.048  0.00  0.00    +0.000 OA
BRANCH 890 891
ATOM    891  C5' C   B  75     -13.997 -26.632   0.036  0.00  0.00    +0.000 C 
BRANCH 891 892
ATOM    892  C4' C   B  75     -12.649 -26.025   0.351  0.00  0.00    +0.000 C 
ATOM    893  O4' C   B  75     -12.731 -25.320   1.628  0.00  0.00    +0.000 OA
ATOM    894  C3' C   B  75     -11.512 -27.036   0.489  0.00  0.00    +0.000 C 
ATOM    895  C2' C   B  75     -11.372 -27.192   1.993  0.00  0.00    +0.000 C 
ATOM    896  C1' C   B  75     -11.726 -25.793   2.497  0.00  0.00    +0.000 C 
BRANCH 896 897
ATOM    897  N1  C   B  75     -12.240 -25.801   3.880  0.00  0.00    +0.000 N 
ATOM    898  C2  C   B  75     -11.566 -25.066   4.865  0.00  0.00    +0.000 A 
ATOM    899  O2  C   B  75     -10.563 -24.407   4.547  0.00  0.00    +0.000 OA
ATOM    900  N3  C   B  75     -12.029 -25.084   6.140  0.00  0.00    +0.000 NA
ATOM    901  C4  C   B  75     -13.115 -25.799   6.441  0.00  0.00    +0.000 A 
ATOM    902  N4  C   B  75     -13.535 -25.789   7.711  0.00  0.00    +0.000 N 
ATOM    903  C5  C   B  75     -13.818 -26.561   5.456  0.00  0.00    +0.000 A 
ATOM    904  C6  C   B  75     -13.351 -26.531   4.200  0.00  0.00    +0.000 A 
ATOM    905  H   C   B  75     -14.333 -26.305   7.970  0.00  0.00    +0.000 HD
ATOM    906  H   C   B  75     -13.046 -25.266   8.387  0.00  0.00    +0.000 HD
ENDBRANCH 896 897
BRANCH 895 907
ATOM    907  O2' C   B  75     -10.078 -27.578   2.439  0.00  0.00    +0.000 OA
ATOM    908  H   C   B  75      -9.427 -26.917   2.154  0.00  0.00    +0.000 HD
ENDBRANCH 895 907
BRANCH 894 909
ATOM    909  O3' C   B  75     -10.307 -26.515  -0.067  0.00  0.00    +0.000 OA
BRANCH 909 910
ATOM    910  P   A   B  76      -9.563 -27.371  -1.196  0.00  0.00    +0.000 P 
ATOM    911  OP2 A   B  76     -10.601 -27.988  -2.054  0.00  0.00    +0.000 OA
BRANCH 910 912
ATOM    912  OP1 A   B  76      -8.506 -26.532  -1.823  0.00  0.00    +0.000 OA
ATOM    913  H   A   B  76      -8.051 -27.045  -2.509  0.00  0.00    +0.000 HD
ENDBRANCH 910 912
BRANCH 910 914
ATOM    914  O5' A   B  76      -8.858 -28.532  -0.360  0.00  0.00    +0.000 OA
BRANCH 914 915
ATOM    915  C5' A   B  76      -7.555 -28.353   0.181  0.00  0.00    +0.000 C 
BRANCH 915 916
ATOM    916  C4' A   B  76      -7.081 -29.628   0.839  0.00  0.00    +0.000 C 
ATOM    917  O4' A   B  76      -7.841 -29.853   2.057  0.00  0.00    +0.000 OA
ATOM    918  C3' A   B  76      -7.283 -30.892   0.030  0.00  0.00    +0.000 C 
ATOM    919  C2' A   B  76      -7.346 -31.969   1.102  0.00  0.00    +0.000 C 
ATOM    920  C1' A   B  76      -8.078 -31.235   2.230  0.00  0.00    +0.000 C 
BRANCH 920 921
ATOM    921  N9  A   B  76      -9.527 -31.461   2.208  0.00  0.00    +0.000 N 
ATOM    922  C8  A   B  76     -10.484 -30.719   1.574  0.00  0.00    +0.000 A 
ATOM    923  N7  A   B  76     -11.700 -31.170   1.757  0.00  0.00    +0.000 NA
ATOM    924  C5  A   B  76     -11.534 -32.279   2.564  0.00  0.00    +0.000 A 
ATOM    925  C6  A   B  76     -12.446 -33.191   3.119  0.00  0.00    +0.000 A 
ATOM    926  N6  A   B  76     -13.773 -33.119   2.927  0.00  0.00    +0.000 N 
ATOM    927  N1  A   B  76     -11.946 -34.186   3.880  0.00  0.00    +0.000 NA
ATOM    928  C2  A   B  76     -10.625 -34.255   4.073  0.00  0.00    +0.000 A 
ATOM    929  N3  A   B  76      -9.671 -33.454   3.604  0.00  0.00    +0.000 NA
ATOM    930  C4  A   B  76     -10.200 -32.473   2.850  0.00  0.00    +0.000 A 
ATOM    931  H   A   B  76     -14.152 -32.398   2.374  0.00  0.00    +0.000 HD
ATOM    932  H   A   B  76     -14.367 -33.787   3.339  0.00  0.00    +0.000 HD
ENDBRANCH 920 921
BRANCH 919 933
ATOM    933  O2' A   B  76      -6.055 -32.342   1.554  0.00  0.00    +0.000 OA
ATOM    934  H   A   B  76      -5.586 -31.557   1.878  0.00  0.00    +0.000 HD
ENDBRANCH 919 933
BRANCH 918 935
ATOM    935  O3' A   B  76      -6.246 -31.094  -0.916  0.00  0.00    +0.000 OA
ATOM    936  H   A   B  76      -5.392 -31.125  -0.458  0.00  0.00    +0.000 HD
ENDBRANCH 918 935
ENDBRANCH 915 916
ENDBRANCH 914 915
ENDBRANCH 910 914
ENDBRANCH 909 910
ENDBRANCH 894 909
ENDBRANCH 891 892
ENDBRANCH 890 891
ENDBRANCH 886 890
ENDBRANCH 885 886
ENDBRANCH 870 885
ENDBRANCH 867 868
ENDBRANCH 866 867
ENDBRANCH 862 866
ENDBRANCH 861 862
ENDBRANCH 847 861
ENDBRANCH 844 845
ENDBRANCH 843 844
ENDBRANCH 839 843
ENDBRANCH 838 839
ENDBRANCH 823 838
ENDBRANCH 820 821
ENDBRANCH 819 820
ENDBRANCH 815 819
ENDBRANCH 814 815
ENDBRANCH 800 814
ENDBRANCH 797 798
ENDBRANCH 796 797
ENDBRANCH 792 796
ENDBRANCH 791 792
ENDBRANCH 774 791
ENDBRANCH 771 772
ENDBRANCH 770 771
ENDBRANCH 766 770
ENDBRANCH 765 766
ENDBRANCH 748 765
ENDBRANCH 745 746
ENDBRANCH 744 745
ENDBRANCH 740 744
ENDBRANCH 739 740
ENDBRANCH 722 739
ENDBRANCH 719 720
ENDBRANCH 718 719
ENDBRANCH 714 718
ENDBRANCH 713 714
ENDBRANCH 696 713
ENDBRANCH 693 694
ENDBRANCH 692 693
ENDBRANCH 688 692
ENDBRANCH 687 688
ENDBRANCH 670 687
ENDBRANCH 667 668
ENDBRANCH 666 667
ENDBRANCH 662 666
ENDBRANCH 661 662
ENDBRANCH 646 661
ENDBRANCH 643 644
ENDBRANCH 642 643
ENDBRANCH 638 642
ENDBRANCH 637 638
ENDBRANCH 620 637
ENDBRANCH 617 618
ENDBRANCH 616 617
ENDBRANCH 612 616
ENDBRANCH 611 612
ENDBRANCH 597 611
ENDBRANCH 594 595
ENDBRANCH 593 594
ENDBRANCH 589 593
ENDBRANCH 588 589
ENDBRANCH 573 588
ENDBRANCH 570 571
ENDBRANCH 569 570
ENDBRANCH 565 569
ENDBRANCH 564 565
ENDBRANCH 547 564
ENDBRANCH 544 545
ENDBRANCH 543 544
ENDBRANCH 539 543
ENDBRANCH 538 539
ENDBRANCH 519 538
ENDBRANCH 516 517
ENDBRANCH 515 516
ENDBRANCH 511 515
ENDBRANCH 510 511
ENDBRANCH 493 510
ENDBRANCH 490 491
ENDBRANCH 489 490
ENDBRANCH 485 489
ENDBRANCH 484 485
ENDBRANCH 469 484
ENDBRANCH 466 467
ENDBRANCH 465 466
ENDBRANCH 461 465
ENDBRANCH 460 461
ENDBRANCH 443 460
ENDBRANCH 440 441
ENDBRANCH 439 440
ENDBRANCH 435 439
ENDBRANCH 434 435
ENDBRANCH 417 434
ENDBRANCH 414 415
ENDBRANCH 413 414
ENDBRANCH 409 413
ENDBRANCH 408 409
ENDBRANCH 391 408
ENDBRANCH 388 389
ENDBRANCH 387 388
ENDBRANCH 383 387
ENDBRANCH 382 383
ENDBRANCH 365 382
ENDBRANCH 362 363
ENDBRANCH 361 362
ENDBRANCH 357 361
ENDBRANCH 356 357
ENDBRANCH 339 356
ENDBRANCH 336 337
ENDBRANCH 335 336
ENDBRANCH 331 335
ENDBRANCH 330 331
ENDBRANCH 316 330
ENDBRANCH 313 314
ENDBRANCH 312 313
ENDBRANCH 308 312
ENDBRANCH 307 308
ENDBRANCH 293 307
ENDBRANCH 290 291
ENDBRANCH 289 290
ENDBRANCH 285 289
ENDBRANCH 284 285
ENDBRANCH 270 284
ENDBRANCH 267 268
ENDBRANCH 266 267
ENDBRANCH 262 266
ENDBRANCH 261 262
ENDBRANCH 247 261
ENDBRANCH 244 245
ENDBRANCH 243 244
ENDBRANCH 239 243
ENDBRANCH 238 239
ENDBRANCH 221 238
ENDBRANCH 218 219
ENDBRANCH 217 218
ENDBRANCH 213 217
ENDBRANCH 212 213
ENDBRANCH 198 212
ENDBRANCH 195 196
ENDBRANCH 194 195
ENDBRANCH 190 194
ENDBRANCH 189 190
ENDBRANCH 175 189
ENDBRANCH 172 173
ENDBRANCH 171 172
ENDBRANCH 167 171
ENDBRANCH 166 167
ENDBRANCH 152 166
ENDBRANCH 149 150
ENDBRANCH 148 149
ENDBRANCH 144 148
ENDBRANCH 143 144
ENDBRANCH 128 143
ENDBRANCH 125 126
ENDBRANCH 124 125
ENDBRANCH 120 124
ENDBRANCH 119 120
ENDBRANCH 102 119
ENDBRANCH  99 100
ENDBRANCH  98  99
ENDBRANCH  94  98
ENDBRANCH  93  94
ENDBRANCH  79  93
ENDBRANCH  76  77
ENDBRANCH  75  76
ENDBRANCH  71  75
ENDBRANCH  70  71
ENDBRANCH  56  70
ENDBRANCH  53  54
ENDBRANCH  52  53
ENDBRANCH  48  52
ENDBRANCH  47  48
ENDBRANCH  32  47
ENDBRANCH  29  30
ENDBRANCH  28  29
ENDBRANCH  24  28
ENDBRANCH  23  24
ENDBRANCH   9  23
ENDBRANCH   6   7
ENDBRANCH   5   6
ENDBRANCH   1   5
BRANCH   1 937
ATOM    937  O3' U   B  38      34.882 -37.109  -6.875  0.00  0.00    +0.000 OA
BRANCH 937 940
ATOM    938  C4' U   B  38      33.878 -37.214  -4.652  0.00  0.00    +0.000 C 
ATOM    939  O4' U   B  38      33.112 -36.269  -3.853  0.00  0.00    +0.000 OA
ATOM    940  C3' U   B  38      34.509 -36.355  -5.730  0.00  0.00    +0.000 C 
ATOM    941  C2' U   B  38      33.416 -35.334  -6.021  0.00  0.00    +0.000 C 
ATOM    942  C1' U   B  38      32.814 -35.123  -4.623  0.00  0.00    +0.000 C 
BRANCH 942 943
ATOM    943  N1  U   B  38      33.358 -33.926  -3.943  0.00  0.00    +0.000 N 
ATOM    944  C2  U   B  38      32.783 -32.703  -4.244  0.00  0.00    +0.000 A 
ATOM    945  O2  U   B  38      31.862 -32.577  -5.030  0.00  0.00    +0.000 OA
ATOM    946  N3  U   B  38      33.329 -31.625  -3.589  0.00  0.00    +0.000 N 
ATOM    947  C4  U   B  38      34.367 -31.641  -2.684  0.00  0.00    +0.000 A 
ATOM    948  O4  U   B  38      34.744 -30.587  -2.181  0.00  0.00    +0.000 OA
ATOM    949  C5  U   B  38      34.908 -32.942  -2.423  0.00  0.00    +0.000 A 
ATOM    950  C6  U   B  38      34.395 -34.015  -3.046  0.00  0.00    +0.000 A 
ATOM    951  H   U   B  38      32.935 -30.745  -3.789  0.00  0.00    +0.000 HD
ENDBRANCH 942 943
BRANCH 941 952
ATOM    952  O2' U   B  38      32.420 -35.860  -6.876  0.00  0.00    +0.000 OA
ATOM    953  H   U   B  38      32.049 -36.666  -6.483  0.00  0.00    +0.000 HD
ENDBRANCH 941 952
BRANCH 938 954
ATOM    954  C5' U   B  38      34.835 -37.968  -3.757  0.00  0.00    +0.000 C 
BRANCH 954 955
ATOM    955  O5' U   B  38      35.746 -37.081  -3.122  0.00  0.00    +0.000 OA
BRANCH 955 956
ATOM    956  P   U   B  38      36.670 -37.578  -1.925  0.00  0.00    +0.000 P 
ATOM    957  OP1 U   B  38      37.372 -38.808  -2.357  0.00  0.00    +0.000 OA
BRANCH 956 958
ATOM    958  OP2 U   B  38      37.457 -36.412  -1.441  0.00  0.00    +0.000 OA
ATOM    959  H   U   B  38      38.097 -36.149  -2.121  0.00  0.00    +0.000 HD
ENDBRANCH 956 958
BRANCH 956 960
ATOM    960  O3' A   B  37      35.619 -37.983  -0.765  0.00  0.00    +0.000 OA
BRANCH 960 963
ATOM    961  C4' A   B  37      34.802 -37.423   1.468  0.00  0.00    +0.000 C 
ATOM    962  O4' A   B  37      33.726 -36.578   1.959  0.00  0.00    +0.000 OA
ATOM    963  C3' A   B  37      34.985 -36.984   0.025  0.00  0.00    +0.000 C 
ATOM    964  C2' A   B  37      33.559 -36.685  -0.411  0.00  0.00    +0.000 C 
ATOM    965  C1' A   B  37      32.982 -36.072   0.866  0.00  0.00    +0.000 C 
BRANCH 965 966
ATOM    966  N9  A   B  37      33.080 -34.604   0.874  0.00  0.00    +0.000 N 
ATOM    967  C8  A   B  37      33.960 -33.822   1.577  0.00  0.00    +0.000 A 
ATOM    968  N7  A   B  37      33.800 -32.534   1.375  0.00  0.00    +0.000 NA
ATOM    969  C5  A   B  37      32.741 -32.468   0.477  0.00  0.00    +0.000 A 
ATOM    970  C6  A   B  37      32.084 -31.389  -0.135  0.00  0.00    +0.000 A 
ATOM    971  N1  A   B  37      31.069 -31.664  -0.979  0.00  0.00    +0.000 NA
ATOM    972  C2  A   B  37      30.740 -32.945  -1.188  0.00  0.00    +0.000 A 
ATOM    973  N3  A   B  37      31.280 -34.046  -0.670  0.00  0.00    +0.000 NA
ATOM    974  C4  A   B  37      32.287 -33.734   0.163  0.00  0.00    +0.000 A 
BRANCH 970 975
ATOM    975  N6  A   B  37      32.414 -30.109   0.071  0.00  0.00    +0.000 N 
ATOM    976  H   A   B  37      31.917 -29.393  -0.386  0.00  0.00    +0.000 HD
ATOM    977  H   A   B  37      33.154 -29.883   0.680  0.00  0.00    +0.000 HD
ENDBRANCH 970 975
ENDBRANCH 965 966
BRANCH 964 978
ATOM    978  O2' A   B  37      32.844 -37.865  -0.722  0.00  0.00    +0.000 OA
ATOM    979  H   A   B  37      32.859 -38.463   0.042  0.00  0.00    +0.000 HD
ENDBRANCH 964 978
BRANCH 961 980
ATOM    980  C5' A   B  37      36.013 -37.272   2.358  0.00  0.00    +0.000 C 
BRANCH 980 981
ATOM    981  O5' A   B  37      36.535 -35.952   2.291  0.00  0.00    +0.000 OA
BRANCH 981 982
ATOM    982  P   A   B  37      37.776 -35.519   3.184  0.00  0.00    +0.000 P 
ATOM    983  OP2 A   B  37      38.074 -34.089   2.897  0.00  0.00    +0.000 OA
BRANCH 982 984
ATOM    984  OP1 A   B  37      38.843 -36.532   3.017  0.00  0.00    +0.000 OA
ATOM    985  H   A   B  37      39.198 -36.482   2.116  0.00  0.00    +0.000 HD
ENDBRANCH 982 984
BRANCH 982 986
ATOM    986  O3' U   B  36      37.211 -35.631   4.692  0.00  0.00    +0.000 OA
BRANCH 986 989
ATOM    987  C4' U   B  36      36.527 -34.499   6.742  0.00  0.00    +0.000 C 
ATOM    988  O4' U   B  36      35.335 -33.758   7.131  0.00  0.00    +0.000 OA
ATOM    989  C3' U   B  36      36.420 -34.585   5.236  0.00  0.00    +0.000 C 
ATOM    990  C2' U   B  36      34.922 -34.791   5.030  0.00  0.00    +0.000 C 
ATOM    991  C1' U   B  36      34.346 -33.880   6.124  0.00  0.00    +0.000 C 
BRANCH 991 992
ATOM    992  N1  U   B  36      34.008 -32.532   5.613  0.00  0.00    +0.000 N 
ATOM    993  C2  U   B  36      32.821 -32.392   4.910  0.00  0.00    +0.000 A 
ATOM    994  O2  U   B  36      32.058 -33.318   4.702  0.00  0.00    +0.000 OA
ATOM    995  N3  U   B  36      32.559 -31.122   4.453  0.00  0.00    +0.000 N 
ATOM    996  C4  U   B  36      33.340 -30.000   4.622  0.00  0.00    +0.000 A 
ATOM    997  O4  U   B  36      32.964 -28.929   4.148  0.00  0.00    +0.000 OA
ATOM    998  C5  U   B  36      34.545 -30.223   5.360  0.00  0.00    +0.000 A 
ATOM    999  C6  U   B  36      34.830 -31.450   5.820  0.00  0.00    +0.000 A 
ATOM   1000  H   U   B  36      31.721 -31.001   3.950  0.00  0.00    +0.000 HD
ENDBRANCH 991 992
BRANCH 9901001
ATOM   1001  O2' U   B  36      34.532 -36.121   5.282  0.00  0.00    +0.000 OA
ATOM   1002  H   U   B  36      34.798 -36.371   6.181  0.00  0.00    +0.000 HD
ENDBRANCH 9901001
BRANCH 9871003
ATOM   1003  C5' U   B  36      37.762 -33.816   7.280  0.00  0.00    +0.000 C 
BRANCH10031004
ATOM   1004  O5' U   B  36      37.890 -32.496   6.771  0.00  0.00    +0.000 OA
BRANCH10041005
ATOM   1005  P   U   B  36      39.055 -31.532   7.277  0.00  0.00    +0.000 P 
ATOM   1006  OP2 U   B  36      38.922 -30.239   6.553  0.00  0.00    +0.000 OA
BRANCH10051007
ATOM   1007  OP1 U   B  36      40.332 -32.279   7.219  0.00  0.00    +0.000 OA
ATOM   1008  H   U   B  36      40.569 -32.443   6.293  0.00  0.00    +0.000 HD
ENDBRANCH10051007
BRANCH10051009
ATOM   1009  O3' A   B  35      38.697 -31.279   8.832  0.00  0.00    +0.000 OA
BRANCH10091012
ATOM   1010  C4' A   B  35      37.713 -29.782  10.504  0.00  0.00    +0.000 C 
ATOM   1011  O4' A   B  35      36.344 -29.493  10.901  0.00  0.00    +0.000 OA
ATOM   1012  C3' A   B  35      37.550 -30.527   9.195  0.00  0.00    +0.000 C 
ATOM   1013  C2' A   B  35      36.336 -31.396   9.484  0.00  0.00    +0.000 C 
ATOM   1014  C1' A   B  35      35.472 -30.436  10.302  0.00  0.00    +0.000 C 
BRANCH10141015
ATOM   1015  N9  A   B  35      34.494 -29.732   9.457  0.00  0.00    +0.000 N 
ATOM   1016  C8  A   B  35      34.498 -28.429   9.032  0.00  0.00    +0.000 A 
ATOM   1017  N7  A   B  35      33.471 -28.125   8.273  0.00  0.00    +0.000 NA
ATOM   1018  C5  A   B  35      32.748 -29.306   8.192  0.00  0.00    +0.000 A 
ATOM   1019  C6  A   B  35      31.556 -29.652   7.538  0.00  0.00    +0.000 A 
ATOM   1020  N1  A   B  35      31.109 -30.916   7.660  0.00  0.00    +0.000 NA
ATOM   1021  C2  A   B  35      31.818 -31.777   8.399  0.00  0.00    +0.000 A 
ATOM   1022  N3  A   B  35      32.950 -31.572   9.064  0.00  0.00    +0.000 NA
ATOM   1023  C4  A   B  35      33.366 -30.303   8.918  0.00  0.00    +0.000 A 
BRANCH10191024
ATOM   1024  N6  A   B  35      30.846 -28.795   6.794  0.00  0.00    +0.000 N 
ATOM   1025  H   A   B  35      30.016 -29.093   6.357  0.00  0.00    +0.000 HD
ATOM   1026  H   A   B  35      31.154 -27.867   6.683  0.00  0.00    +0.000 HD
ENDBRANCH10191024
ENDBRANCH10141015
BRANCH10131027
ATOM   1027  O2' A   B  35      36.665 -32.517  10.280  0.00  0.00    +0.000 OA
ATOM   1028  H   A   B  35      37.083 -32.218  11.103  0.00  0.00    +0.000 HD
ENDBRANCH10131027
BRANCH10101029
ATOM   1029  C5' A   B  35      38.525 -28.510  10.463  0.00  0.00    +0.000 C 
BRANCH10291030
ATOM   1030  O5' A   B  35      37.898 -27.512   9.664  0.00  0.00    +0.000 OA
BRANCH10301031
ATOM   1031  P   A   B  35      38.380 -25.993   9.747  0.00  0.00    +0.000 P 
ATOM   1032  OP2 A   B  35      37.605 -25.218   8.745  0.00  0.00    +0.000 OA
BRANCH10311033
ATOM   1033  OP1 A   B  35      39.859 -25.974   9.705  0.00  0.00    +0.000 OA
ATOM   1034  H   A   B  35      40.161 -26.254   8.827  0.00  0.00    +0.000 HD
ENDBRANCH10311033
BRANCH10311035
ATOM   1035  O3' A   B  34      37.914 -25.521  11.222  0.00  0.00    +0.000 OA
BRANCH10351038
ATOM   1036  C4' A   B  34      36.302 -24.246  12.561  0.00  0.00    +0.000 C 
ATOM   1037  O4' A   B  34      34.953 -24.516  13.026  0.00  0.00    +0.000 OA
ATOM   1038  C3' A   B  34      36.541 -25.313  11.515  0.00  0.00    +0.000 C 
ATOM   1039  C2' A   B  34      35.867 -26.522  12.146  0.00  0.00    +0.000 C 
ATOM   1040  C1' A   B  34      34.634 -25.875  12.779  0.00  0.00    +0.000 C 
BRANCH10401041
ATOM   1041  N9  A   B  34      33.470 -25.942  11.884  0.00  0.00    +0.000 N 
ATOM   1042  C8  A   B  34      32.958 -24.972  11.067  0.00  0.00    +0.000 A 
ATOM   1043  N7  A   B  34      31.908 -25.364  10.386  0.00  0.00    +0.000 NA
ATOM   1044  C5  A   B  34      31.718 -26.680  10.780  0.00  0.00    +0.000 A 
ATOM   1045  C6  A   B  34      30.774 -27.654  10.424  0.00  0.00    +0.000 A 
ATOM   1046  N1  A   B  34      30.868 -28.866  11.002  0.00  0.00    +0.000 NA
ATOM   1047  C2  A   B  34      31.850 -29.084  11.882  0.00  0.00    +0.000 A 
ATOM   1048  N3  A   B  34      32.799 -28.248  12.302  0.00  0.00    +0.000 NA
ATOM   1049  C4  A   B  34      32.673 -27.049  11.703  0.00  0.00    +0.000 A 
BRANCH10451050
ATOM   1050  N6  A   B  34      29.790 -27.444   9.539  0.00  0.00    +0.000 N 
ATOM   1051  H   A   B  34      29.700 -26.566   9.102  0.00  0.00    +0.000 HD
ATOM   1052  H   A   B  34      29.157 -28.167   9.325  0.00  0.00    +0.000 HD
ENDBRANCH10451050
ENDBRANCH10401041
BRANCH10391053
ATOM   1053  O2' A   B  34      36.661 -27.097  13.164  0.00  0.00    +0.000 OA
ATOM   1054  H   A   B  34      36.869 -26.424  13.831  0.00  0.00    +0.000 HD
ENDBRANCH10391053
BRANCH10361055
ATOM   1055  C5' A   B  34      36.413 -22.813  12.095  0.00  0.00    +0.000 C 
BRANCH10551056
ATOM   1056  O5' A   B  34      35.566 -22.563  10.979  0.00  0.00    +0.000 OA
BRANCH10561057
ATOM   1057  P   A   B  34      35.337 -21.073  10.457  0.00  0.00    +0.000 P 
ATOM   1058  OP2 A   B  34      34.443 -21.140   9.275  0.00  0.00    +0.000 OA
BRANCH10571059
ATOM   1059  OP1 A   B  34      36.652 -20.408  10.350  0.00  0.00    +0.000 OA
ATOM   1060  H   A   B  34      37.158 -20.806   9.624  0.00  0.00    +0.000 HD
ENDBRANCH10571059
BRANCH10571061
ATOM   1061  O3' U   B  33      34.521 -20.388  11.673  0.00  0.00    +0.000 OA
BRANCH10611064
ATOM   1062  C4' U   B  33      32.340 -19.541  12.392  0.00  0.00    +0.000 C 
ATOM   1063  O4' U   B  33      31.170 -20.160  12.995  0.00  0.00    +0.000 OA
ATOM   1064  C3' U   B  33      33.157 -20.711  11.895  0.00  0.00    +0.000 C 
ATOM   1065  C2' U   B  33      32.944 -21.739  12.999  0.00  0.00    +0.000 C 
ATOM   1066  C1' U   B  33      31.468 -21.497  13.344  0.00  0.00    +0.000 C 
BRANCH10661067
ATOM   1067  N1  U   B  33      30.568 -22.400  12.596  0.00  0.00    +0.000 N 
ATOM   1068  C2  U   B  33      30.373 -23.672  13.110  0.00  0.00    +0.000 A 
ATOM   1069  O2  U   B  33      30.900 -24.061  14.139  0.00  0.00    +0.000 OA
ATOM   1070  N3  U   B  33      29.532 -24.477  12.377  0.00  0.00    +0.000 N 
ATOM   1071  C4  U   B  33      28.884 -24.148  11.206  0.00  0.00    +0.000 A 
ATOM   1072  O4  U   B  33      28.162 -24.980  10.660  0.00  0.00    +0.000 OA
ATOM   1073  C5  U   B  33      29.137 -22.821  10.737  0.00  0.00    +0.000 A 
ATOM   1074  C6  U   B  33      29.951 -22.015  11.432  0.00  0.00    +0.000 A 
ATOM   1075  H   U   B  33      29.377 -25.384  12.726  0.00  0.00    +0.000 HD
ENDBRANCH10661067
BRANCH10651076
ATOM   1076  O2' U   B  33      33.733 -21.468  14.136  0.00  0.00    +0.000 OA
ATOM   1077  H   U   B  33      33.544 -20.571  14.454  0.00  0.00    +0.000 HD
ENDBRANCH10651076
BRANCH10621078
ATOM   1078  C5' U   B  33      31.912 -18.543  11.344  0.00  0.00    +0.000 C 
BRANCH10781079
ATOM   1079  O5' U   B  33      31.263 -19.185  10.251  0.00  0.00    +0.000 OA
BRANCH10791080
ATOM   1080  P   U   B  33      30.505 -18.340   9.135  0.00  0.00    +0.000 P 
ATOM   1081  OP2 U   B  33      29.894 -19.294   8.175  0.00  0.00    +0.000 OA
BRANCH10801082
ATOM   1082  OP1 U   B  33      31.418 -17.287   8.647  0.00  0.00    +0.000 OA
ATOM   1083  H   U   B  33      30.971 -16.762   7.965  0.00  0.00    +0.000 HD
ENDBRANCH10801082
BRANCH10801084
ATOM   1084  O3' A   B  32      29.317 -17.636   9.963  0.00  0.00    +0.000 OA
BRANCH10841087
ATOM   1085  C4' A   B  32      26.900 -17.580  10.303  0.00  0.00    +0.000 C 
ATOM   1086  O4' A   B  32      25.998 -18.248  11.228  0.00  0.00    +0.000 OA
ATOM   1087  C3' A   B  32      28.181 -18.382  10.387  0.00  0.00    +0.000 C 
ATOM   1088  C2' A   B  32      28.226 -18.774  11.857  0.00  0.00    +0.000 C 
ATOM   1089  C1' A   B  32      26.742 -19.031  12.140  0.00  0.00    +0.000 C 
BRANCH10891090
ATOM   1090  N9  A   B  32      26.368 -20.442  11.953  0.00  0.00    +0.000 N 
ATOM   1091  C8  A   B  32      25.757 -21.012  10.866  0.00  0.00    +0.000 A 
ATOM   1092  N7  A   B  32      25.546 -22.301  11.000  0.00  0.00    +0.000 NA
ATOM   1093  C5  A   B  32      26.052 -22.600  12.255  0.00  0.00    +0.000 A 
ATOM   1094  C6  A   B  32      26.131 -23.794  12.985  0.00  0.00    +0.000 A 
ATOM   1095  N6  A   B  32      25.676 -24.968  12.527  0.00  0.00    +0.000 N 
ATOM   1096  N1  A   B  32      26.697 -23.749  14.205  0.00  0.00    +0.000 NA
ATOM   1097  C2  A   B  32      27.149 -22.579  14.660  0.00  0.00    +0.000 A 
ATOM   1098  N3  A   B  32      27.131 -21.383  14.069  0.00  0.00    +0.000 NA
ATOM   1099  C4  A   B  32      26.563 -21.463  12.854  0.00  0.00    +0.000 A 
ATOM   1100  H   A   B  32      25.259 -25.021  11.637  0.00  0.00    +0.000 HD
ATOM   1101  H   A   B  32      25.759 -25.778  13.081  0.00  0.00    +0.000 HD
ENDBRANCH10891090
BRANCH10881102
ATOM   1102  O2' A   B  32      28.675 -17.706  12.672  0.00  0.00    +0.000 OA
ATOM   1103  H   A   B  32      28.108 -16.931  12.531  0.00  0.00    +0.000 HD
ENDBRANCH10881102
BRANCH10851104
ATOM   1104  C5' A   B  32      26.262 -17.510   8.936  0.00  0.00    +0.000 C 
BRANCH11041105
ATOM   1105  O5' A   B  32      26.068 -18.816   8.403  0.00  0.00    +0.000 OA
BRANCH11051106
ATOM   1106  P   A   B  32      25.217 -19.040   7.075  0.00  0.00    +0.000 P 
ATOM   1107  OP1 A   B  32      25.725 -18.111   6.039  0.00  0.00    +0.000 OA
BRANCH11061108
ATOM   1108  OP2 A   B  32      25.172 -20.499   6.800  0.00  0.00    +0.000 OA
ATOM   1109  H   A   B  32      24.658 -20.660   5.994  0.00  0.00    +0.000 HD
ENDBRANCH11061108
BRANCH11061110
ATOM   1110  O3' A   B  31      23.746 -18.572   7.490  0.00  0.00    +0.000 OA
BRANCH11101113
ATOM   1111  C4' A   B  31      21.448 -19.215   8.006  0.00  0.00    +0.000 C 
ATOM   1112  O4' A   B  31      20.775 -19.651   9.220  0.00  0.00    +0.000 OA
ATOM   1113  C3' A   B  31      22.921 -19.388   8.314  0.00  0.00    +0.000 C 
ATOM   1114  C2' A   B  31      22.993 -19.019   9.789  0.00  0.00    +0.000 C 
ATOM   1115  C1' A   B  31      21.677 -19.606  10.307  0.00  0.00    +0.000 C 
BRANCH11151116
ATOM   1116  N9  A   B  31      21.839 -20.968  10.836  0.00  0.00    +0.000 N 
ATOM   1117  C8  A   B  31      21.516 -22.154  10.227  0.00  0.00    +0.000 A 
ATOM   1118  N7  A   B  31      21.771 -23.212  10.962  0.00  0.00    +0.000 NA
ATOM   1119  C5  A   B  31      22.299 -22.688  12.132  0.00  0.00    +0.000 A 
ATOM   1120  C6  A   B  31      22.767 -23.288  13.311  0.00  0.00    +0.000 A 
ATOM   1121  N6  A   B  31      22.779 -24.613  13.508  0.00  0.00    +0.000 N 
ATOM   1122  N1  A   B  31      23.230 -22.483  14.287  0.00  0.00    +0.000 NA
ATOM   1123  C2  A   B  31      23.219 -21.162  14.088  0.00  0.00    +0.000 A 
ATOM   1124  N3  A   B  31      22.800 -20.476  13.022  0.00  0.00    +0.000 NA
ATOM   1125  C4  A   B  31      22.347 -21.308  12.069  0.00  0.00    +0.000 A 
ATOM   1126  H   A   B  31      22.445 -25.218  12.807  0.00  0.00    +0.000 HD
ATOM   1127  H   A   B  31      23.122 -24.982  14.354  0.00  0.00    +0.000 HD
ENDBRANCH11151116
BRANCH11141128
ATOM   1128  O2' A   B  31      22.977 -17.614   9.977  0.00  0.00    +0.000 OA
ATOM   1129  H   A   B  31      22.187 -17.240   9.556  0.00  0.00    +0.000 HD
ENDBRANCH11141128
BRANCH11111130
ATOM   1130  C5' A   B  31      20.926 -20.001   6.826  0.00  0.00    +0.000 C 
BRANCH11301131
ATOM   1131  O5' A   B  31      21.143 -21.396   7.010  0.00  0.00    +0.000 OA
BRANCH11311132
ATOM   1132  P   A   B  31      20.457 -22.468   6.048  0.00  0.00    +0.000 P 
ATOM   1133  OP1 A   B  31      20.703 -22.055   4.646  0.00  0.00    +0.000 OA
BRANCH11321134
ATOM   1134  OP2 A   B  31      20.871 -23.819   6.503  0.00  0.00    +0.000 OA
ATOM   1135  H   A   B  31      20.466 -24.491   5.932  0.00  0.00    +0.000 HD
ENDBRANCH11321134
BRANCH11321136
ATOM   1136  O3' A   B  30      18.896 -22.306   6.349  0.00  0.00    +0.000 OA
BRANCH11361139
ATOM   1137  C4' A   B  30      16.851 -23.148   7.384  0.00  0.00    +0.000 C 
ATOM   1138  O4' A   B  30      16.332 -23.123   8.741  0.00  0.00    +0.000 OA
ATOM   1139  C3' A   B  30      18.321 -22.822   7.545  0.00  0.00    +0.000 C 
ATOM   1140  C2' A   B  30      18.307 -21.811   8.682  0.00  0.00    +0.000 C 
ATOM   1141  C1' A   B  30      17.199 -22.379   9.572  0.00  0.00    +0.000 C 
BRANCH11411142
ATOM   1142  N9  A   B  30      17.721 -23.268  10.621  0.00  0.00    +0.000 N 
ATOM   1143  C8  A   B  30      17.705 -24.640  10.653  0.00  0.00    +0.000 A 
ATOM   1144  N7  A   B  30      18.245 -25.147  11.738  0.00  0.00    +0.000 NA
ATOM   1145  C5  A   B  30      18.641 -24.038  12.467  0.00  0.00    +0.000 A 
ATOM   1146  C6  A   B  30      19.277 -23.898  13.711  0.00  0.00    +0.000 A 
ATOM   1147  N6  A   B  30      19.640 -24.935  14.473  0.00  0.00    +0.000 N 
ATOM   1148  N1  A   B  30      19.534 -22.650  14.151  0.00  0.00    +0.000 NA
ATOM   1149  C2  A   B  30      19.173 -21.614  13.388  0.00  0.00    +0.000 A 
ATOM   1150  N3  A   B  30      18.566 -21.615  12.200  0.00  0.00    +0.000 NA
ATOM   1151  C4  A   B  30      18.325 -22.873  11.789  0.00  0.00    +0.000 A 
ATOM   1152  H   A   B  30      19.462 -25.855  14.170  0.00  0.00    +0.000 HD
ATOM   1153  H   A   B  30      20.086 -24.779  15.337  0.00  0.00    +0.000 HD
ENDBRANCH11411142
BRANCH11401154
ATOM   1154  O2' A   B  30      17.923 -20.520   8.236  0.00  0.00    +0.000 OA
ATOM   1155  H   A   B  30      17.057 -20.572   7.803  0.00  0.00    +0.000 HD
ENDBRANCH11401154
BRANCH11371156
ATOM   1156  C5' A   B  30      16.534 -24.482   6.746  0.00  0.00    +0.000 C 
BRANCH11561157
ATOM   1157  O5' A   B  30      17.027 -25.557   7.542  0.00  0.00    +0.000 OA
BRANCH11571158
ATOM   1158  P   A   B  30      16.541 -27.058   7.291  0.00  0.00    +0.000 P 
ATOM   1159  OP1 A   B  30      16.636 -27.336   5.837  0.00  0.00    +0.000 OA
BRANCH11581160
ATOM   1160  OP2 A   B  30      17.252 -27.936   8.254  0.00  0.00    +0.000 OA
ATOM   1161  H   A   B  30      18.195 -27.965   8.029  0.00  0.00    +0.000 HD
ENDBRANCH11581160
BRANCH11581162
ATOM   1162  O3' A   B  29      14.985 -27.035   7.695  0.00  0.00    +0.000 OA
BRANCH11621165
ATOM   1163  C4' A   B  29      13.217 -27.620   9.277  0.00  0.00    +0.000 C 
ATOM   1164  O4' A   B  29      12.768 -27.049  10.535  0.00  0.00    +0.000 OA
ATOM   1165  C3' A   B  29      14.580 -27.001   9.060  0.00  0.00    +0.000 C 
ATOM   1166  C2' A   B  29      14.380 -25.589   9.587  0.00  0.00    +0.000 C 
ATOM   1167  C1' A   B  29      13.462 -25.844  10.786  0.00  0.00    +0.000 C 
BRANCH11671168
ATOM   1168  N9  A   B  29      14.210 -25.981  12.043  0.00  0.00    +0.000 N 
ATOM   1169  C8  A   B  29      14.498 -27.127  12.740  0.00  0.00    +0.000 A 
ATOM   1170  N7  A   B  29      15.180 -26.915  13.842  0.00  0.00    +0.000 NA
ATOM   1171  C5  A   B  29      15.352 -25.538  13.870  0.00  0.00    +0.000 A 
ATOM   1172  C6  A   B  29      15.990 -24.681  14.777  0.00  0.00    +0.000 A 
ATOM   1173  N6  A   B  29      16.605 -25.106  15.888  0.00  0.00    +0.000 N 
ATOM   1174  N1  A   B  29      15.984 -23.359  14.511  0.00  0.00    +0.000 NA
ATOM   1175  C2  A   B  29      15.372 -22.932  13.402  0.00  0.00    +0.000 A 
ATOM   1176  N3  A   B  29      14.731 -23.641  12.471  0.00  0.00    +0.000 NA
ATOM   1177  C4  A   B  29      14.759 -24.951  12.767  0.00  0.00    +0.000 A 
ATOM   1178  H   A   B  29      16.623 -26.066  16.104  0.00  0.00    +0.000 HD
ATOM   1179  H   A   B  29      17.039 -24.458  16.489  0.00  0.00    +0.000 HD
ENDBRANCH11671168
BRANCH11661180
ATOM   1180  O2' A   B  29      13.697 -24.772   8.650  0.00  0.00    +0.000 OA
ATOM   1181  H   A   B  29      12.851 -25.185   8.417  0.00  0.00    +0.000 HD
ENDBRANCH11661180
BRANCH11631182
ATOM   1182  C5' A   B  29      13.172 -29.127   9.362  0.00  0.00    +0.000 C 
BRANCH11821183
ATOM   1183  O5' A   B  29      13.939 -29.604  10.462  0.00  0.00    +0.000 OA
BRANCH11831184
ATOM   1184  P   A   B  29      13.797 -31.111  10.970  0.00  0.00    +0.000 P 
ATOM   1185  OP1 A   B  29      13.879 -32.004   9.790  0.00  0.00    +0.000 OA
BRANCH11841186
ATOM   1186  OP2 A   B  29      14.738 -31.299  12.105  0.00  0.00    +0.000 OA
ATOM   1187  H   A   B  29      15.651 -31.260  11.778  0.00  0.00    +0.000 HD
ENDBRANCH11841186
BRANCH11841188
ATOM   1188  O3' U   B  28      12.287 -31.181  11.547  0.00  0.00    +0.000 OA
BRANCH11881191
ATOM   1189  C4' U   B  28      10.804 -31.263  13.491  0.00  0.00    +0.000 C 
ATOM   1190  O4' U   B  28      10.320 -30.257  14.425  0.00  0.00    +0.000 OA
ATOM   1191  C3' U   B  28      11.961 -30.580  12.793  0.00  0.00    +0.000 C 
ATOM   1192  C2' U   B  28      11.455 -29.151  12.656  0.00  0.00    +0.000 C 
ATOM   1193  C1' U   B  28      10.711 -28.970  13.984  0.00  0.00    +0.000 C 
BRANCH11931194
ATOM   1194  N1  U   B  28      11.559 -28.345  15.023  0.00  0.00    +0.000 N 
ATOM   1195  C2  U   B  28      11.731 -26.971  14.959  0.00  0.00    +0.000 A 
ATOM   1196  O2  U   B  28      11.220 -26.278  14.097  0.00  0.00    +0.000 OA
ATOM   1197  N3  U   B  28      12.526 -26.436  15.946  0.00  0.00    +0.000 N 
ATOM   1198  C4  U   B  28      13.152 -27.117  16.966  0.00  0.00    +0.000 A 
ATOM   1199  O4  U   B  28      13.835 -26.494  17.777  0.00  0.00    +0.000 OA
ATOM   1200  C5  U   B  28      12.927 -28.532  16.964  0.00  0.00    +0.000 A 
ATOM   1201  C6  U   B  28      12.158 -29.083  16.015  0.00  0.00    +0.000 A 
ATOM   1202  H   U   B  28      12.662 -25.461  15.920  0.00  0.00    +0.000 HD
ENDBRANCH11931194
BRANCH11921203
ATOM   1203  O2' U   B  28      10.529 -29.021  11.593  0.00  0.00    +0.000 OA
ATOM   1204  H   U   B  28       9.796 -29.642  11.725  0.00  0.00    +0.000 HD
ENDBRANCH11921203
BRANCH11891205
ATOM   1205  C5' U   B  28      11.131 -32.535  14.237  0.00  0.00    +0.000 C 
BRANCH12051206
ATOM   1206  O5' U   B  28      12.105 -32.309  15.249  0.00  0.00    +0.000 OA
BRANCH12061207
ATOM   1207  P   U   B  28      12.388 -33.399  16.380  0.00  0.00    +0.000 P 
ATOM   1208  OP1 U   B  28      12.607 -34.705  15.716  0.00  0.00    +0.000 OA
BRANCH12071209
ATOM   1209  OP2 U   B  28      13.426 -32.855  17.297  0.00  0.00    +0.000 OA
ATOM   1210  H   U   B  28      14.274 -32.802  16.830  0.00  0.00    +0.000 HD
ENDBRANCH12071209
BRANCH12071211
ATOM   1211  O3' U   B  27      10.990 -33.475  17.186  0.00  0.00    +0.000 OA
BRANCH12111214
ATOM   1212  C4' U   B  27       9.756 -32.932  19.226  0.00  0.00    +0.000 C 
ATOM   1213  O4' U   B  27       9.080 -31.735  19.702  0.00  0.00    +0.000 OA
ATOM   1214  C3' U   B  27      10.613 -32.435  18.080  0.00  0.00    +0.000 C 
ATOM   1215  C2' U   B  27       9.714 -31.385  17.440  0.00  0.00    +0.000 C 
ATOM   1216  C1' U   B  27       9.052 -30.761  18.676  0.00  0.00    +0.000 C 
BRANCH12161217
ATOM   1217  N1  U   B  27       9.762 -29.549  19.146  0.00  0.00    +0.000 N 
ATOM   1218  C2  U   B  27       9.529 -28.368  18.463  0.00  0.00    +0.000 A 
ATOM   1219  O2  U   B  27       8.780 -28.289  17.506  0.00  0.00    +0.000 OA
ATOM   1220  N3  U   B  27      10.211 -27.273  18.942  0.00  0.00    +0.000 N 
ATOM   1221  C4  U   B  27      11.081 -27.242  20.009  0.00  0.00    +0.000 A 
ATOM   1222  O4  U   B  27      11.618 -26.179  20.319  0.00  0.00    +0.000 OA
ATOM   1223  C5  U   B  27      11.267 -28.501  20.663  0.00  0.00    +0.000 A 
ATOM   1224  C6  U   B  27      10.618 -29.584  20.219  0.00  0.00    +0.000 A 
ATOM   1225  H   U   B  27      10.061 -26.421  18.472  0.00  0.00    +0.000 HD
ENDBRANCH12161217
BRANCH12151226
ATOM   1226  O2' U   B  27       8.711 -31.972  16.634  0.00  0.00    +0.000 OA
ATOM   1227  H   U   B  27       8.195 -32.598  17.165  0.00  0.00    +0.000 HD
ENDBRANCH12151226
BRANCH12121228
ATOM   1228  C5' U   B  27      10.491 -33.589  20.369  0.00  0.00    +0.000 C 
BRANCH12281229
ATOM   1229  O5' U   B  27      11.466 -32.718  20.931  0.00  0.00    +0.000 OA
BRANCH12291230
ATOM   1230  P   U   B  27      12.157 -33.048  22.332  0.00  0.00    +0.000 P 
ATOM   1231  OP1 U   B  27      12.696 -34.427  22.263  0.00  0.00    +0.000 OA
BRANCH12301232
ATOM   1232  OP2 U   B  27      13.060 -31.920  22.681  0.00  0.00    +0.000 OA
ATOM   1233  H   U   B  27      13.812 -31.907  22.069  0.00  0.00    +0.000 HD
ENDBRANCH12301232
BRANCH12301234
ATOM   1234  O3' U   B  26      10.914 -33.048  23.365  0.00  0.00    +0.000 OA
BRANCH12341237
ATOM   1235  C4' U   B  26       9.777 -31.907  25.200  0.00  0.00    +0.000 C 
ATOM   1236  O4' U   B  26       8.829 -30.802  25.266  0.00  0.00    +0.000 OA
ATOM   1237  C3' U   B  26      10.334 -31.825  23.795  0.00  0.00    +0.000 C 
ATOM   1238  C2' U   B  26       9.106 -31.419  22.989  0.00  0.00    +0.000 C 
ATOM   1239  C1' U   B  26       8.411 -30.454  23.960  0.00  0.00    +0.000 C 
BRANCH12391240
ATOM   1240  N1  U   B  26       8.767 -29.041  23.704  0.00  0.00    +0.000 N 
ATOM   1241  C2  U   B  26       8.108 -28.394  22.672  0.00  0.00    +0.000 A 
ATOM   1242  O2  U   B  26       7.263 -28.935  21.982  0.00  0.00    +0.000 OA
ATOM   1243  N3  U   B  26       8.473 -27.082  22.476  0.00  0.00    +0.000 N 
ATOM   1244  C4  U   B  26       9.408 -26.366  23.190  0.00  0.00    +0.000 A 
ATOM   1245  O4  U   B  26       9.628 -25.194  22.893  0.00  0.00    +0.000 OA
ATOM   1246  C5  U   B  26      10.042 -27.104  24.239  0.00  0.00    +0.000 A 
ATOM   1247  C6  U   B  26       9.709 -28.382  24.455  0.00  0.00    +0.000 A 
ATOM   1248  H   U   B  26       8.017 -26.603  21.747  0.00  0.00    +0.000 HD
ENDBRANCH12391240
BRANCH12381249
ATOM   1249  O2' U   B  26       8.249 -32.518  22.748  0.00  0.00    +0.000 OA
ATOM   1250  H   U   B  26       7.995 -32.922  23.593  0.00  0.00    +0.000 HD
ENDBRANCH12381249
BRANCH12351251
ATOM   1251  C5' U   B  26      10.781 -31.784  26.320  0.00  0.00    +0.000 C 
BRANCH12511252
ATOM   1252  O5' U   B  26      11.517 -30.570  26.235  0.00  0.00    +0.000 OA
BRANCH12521253
ATOM   1253  P   U   B  26      12.405 -30.056  27.454  0.00  0.00    +0.000 P 
ATOM   1254  OP2 U   B  26      12.962 -28.723  27.096  0.00  0.00    +0.000 OA
BRANCH12531255
ATOM   1255  OP1 U   B  26      13.319 -31.151  27.848  0.00  0.00    +0.000 OA
ATOM   1256  H   U   B  26      13.981 -31.286  27.152  0.00  0.00    +0.000 HD
ENDBRANCH12531255
BRANCH12531257
ATOM   1257  O3' U   B  25      11.322 -29.859  28.627  0.00  0.00    +0.000 OA
BRANCH12571260
ATOM   1258  C4' U   B  25      10.053 -28.304  30.018  0.00  0.00    +0.000 C 
ATOM   1259  O4' U   B  25       8.856 -27.507  29.801  0.00  0.00    +0.000 OA
ATOM   1260  C3' U   B  25      10.459 -28.730  28.624  0.00  0.00    +0.000 C 
ATOM   1261  C2' U   B  25       9.108 -29.000  27.970  0.00  0.00    +0.000 C 
ATOM   1262  C1' U   B  25       8.252 -27.879  28.576  0.00  0.00    +0.000 C 
BRANCH12621263
ATOM   1263  N1  U   B  25       8.171 -26.696  27.694  0.00  0.00    +0.000 N 
ATOM   1264  C2  U   B  25       7.226 -26.721  26.682  0.00  0.00    +0.000 A 
ATOM   1265  O2  U   B  25       6.477 -27.663  26.501  0.00  0.00    +0.000 OA
ATOM   1266  N3  U   B  25       7.188 -25.598  25.887  0.00  0.00    +0.000 N 
ATOM   1267  C4  U   B  25       7.980 -24.476  25.998  0.00  0.00    +0.000 A 
ATOM   1268  O4  U   B  25       7.825 -23.547  25.205  0.00  0.00    +0.000 OA
ATOM   1269  C5  U   B  25       8.928 -24.526  27.067  0.00  0.00    +0.000 A 
ATOM   1270  C6  U   B  25       8.990 -25.605  27.858  0.00  0.00    +0.000 A 
ATOM   1271  H   U   B  25       6.523 -25.596  25.161  0.00  0.00    +0.000 HD
ENDBRANCH12621263
BRANCH12611272
ATOM   1272  O2' U   B  25       8.571 -30.246  28.365  0.00  0.00    +0.000 OA
ATOM   1273  H   U   B  25       8.504 -30.277  29.332  0.00  0.00    +0.000 HD
ENDBRANCH12611272
BRANCH12581274
ATOM   1274  C5' U   B  25      11.070 -27.504  30.795  0.00  0.00    +0.000 C 
BRANCH12741275
ATOM   1275  O5' U   B  25      11.468 -26.333  30.093  0.00  0.00    +0.000 OA
BRANCH12751276
ATOM   1276  P   U   B  25      12.258 -25.164  30.829  0.00  0.00    +0.000 P 
ATOM   1277  OP2 U   B  25      12.439 -24.042  29.868  0.00  0.00    +0.000 OA
BRANCH12761278
ATOM   1278  OP1 U   B  25      13.437 -25.759  31.501  0.00  0.00    +0.000 OA
ATOM   1279  H   U   B  25      14.080 -26.045  30.833  0.00  0.00    +0.000 HD
ENDBRANCH12761278
BRANCH12761280
ATOM   1280  O3' U   B  24      11.215 -24.702  31.947  0.00  0.00    +0.000 OA
BRANCH12801283
ATOM   1281  C4' U   B  24       9.669 -23.016  32.799  0.00  0.00    +0.000 C 
ATOM   1282  O4' U   B  24       8.332 -22.597  32.417  0.00  0.00    +0.000 OA
ATOM   1283  C3' U   B  24      10.139 -23.838  31.618  0.00  0.00    +0.000 C 
ATOM   1284  C2' U   B  24       8.868 -24.570  31.212  0.00  0.00    +0.000 C 
ATOM   1285  C1' U   B  24       7.807 -23.491  31.456  0.00  0.00    +0.000 C 
BRANCH12851286
ATOM   1286  N1  U   B  24       7.469 -22.743  30.223  0.00  0.00    +0.000 N 
ATOM   1287  C2  U   B  24       6.502 -23.287  29.399  0.00  0.00    +0.000 A 
ATOM   1288  O2  U   B  24       5.933 -24.332  29.648  0.00  0.00    +0.000 OA
ATOM   1289  N3  U   B  24       6.223 -22.559  28.264  0.00  0.00    +0.000 N 
ATOM   1290  C4  U   B  24       6.794 -21.368  27.881  0.00  0.00    +0.000 A 
ATOM   1291  O4  U   B  24       6.434 -20.836  26.831  0.00  0.00    +0.000 OA
ATOM   1292  C5  U   B  24       7.783 -20.870  28.789  0.00  0.00    +0.000 A 
ATOM   1293  C6  U   B  24       8.078 -21.557  29.899  0.00  0.00    +0.000 A 
ATOM   1294  H   U   B  24       5.540 -22.932  27.661  0.00  0.00    +0.000 HD
ENDBRANCH12851286
BRANCH12841295
ATOM   1295  O2' U   B  24       8.598 -25.670  32.065  0.00  0.00    +0.000 OA
ATOM   1296  H   U   B  24       8.546 -25.362  32.983  0.00  0.00    +0.000 HD
ENDBRANCH12841295
BRANCH12811297
ATOM   1297  C5' U   B  24      10.503 -21.808  33.145  0.00  0.00    +0.000 C 
BRANCH12971298
ATOM   1298  O5' U   B  24      10.575 -20.899  32.049  0.00  0.00    +0.000 OA
BRANCH12981299
ATOM   1299  P   U   B  24      10.463 -19.332  32.281  0.00  0.00    +0.000 P 
ATOM   1300  OP2 U   B  24      10.300 -18.673  30.962  0.00  0.00    +0.000 OA
BRANCH12991301
ATOM   1301  OP1 U   B  24      11.569 -18.923  33.176  0.00  0.00    +0.000 OA
ATOM   1302  H   U   B  24      12.411 -18.988  32.700  0.00  0.00    +0.000 HD
ENDBRANCH12991301
BRANCH12991303
ATOM   1303  O3' U   B  23       9.075 -19.213  33.102  0.00  0.00    +0.000 OA
BRANCH13031306
ATOM   1304  C4' U   B  23       7.334 -17.510  33.072  0.00  0.00    +0.000 C 
ATOM   1305  O4' U   B  23       5.927 -17.524  32.733  0.00  0.00    +0.000 OA
ATOM   1306  C3' U   B  23       7.877 -18.784  32.464  0.00  0.00    +0.000 C 
ATOM   1307  C2' U   B  23       6.718 -19.755  32.639  0.00  0.00    +0.000 C 
ATOM   1308  C1' U   B  23       5.519 -18.836  32.414  0.00  0.00    +0.000 C 
BRANCH13081309
ATOM   1309  N1  U   B  23       5.026 -18.845  31.020  0.00  0.00    +0.000 N 
ATOM   1310  C2  U   B  23       4.274 -19.929  30.601  0.00  0.00    +0.000 A 
ATOM   1311  O2  U   B  23       4.014 -20.876  31.323  0.00  0.00    +0.000 OA
ATOM   1312  N3  U   B  23       3.840 -19.867  29.299  0.00  0.00    +0.000 N 
ATOM   1313  C4  U   B  23       4.069 -18.858  28.390  0.00  0.00    +0.000 A 
ATOM   1314  O4  U   B  23       3.609 -18.947  27.252  0.00  0.00    +0.000 OA
ATOM   1315  C5  U   B  23       4.844 -17.771  28.899  0.00  0.00    +0.000 A 
ATOM   1316  C6  U   B  23       5.283 -17.800  30.168  0.00  0.00    +0.000 A 
ATOM   1317  H   U   B  23       3.305 -20.630  28.980  0.00  0.00    +0.000 HD
ENDBRANCH13081309
BRANCH13071318
ATOM   1318  O2' U   B  23       6.669 -20.282  33.951  0.00  0.00    +0.000 OA
ATOM   1319  H   U   B  23       6.616 -19.554  34.590  0.00  0.00    +0.000 HD
ENDBRANCH13071318
BRANCH13041320
ATOM   1320  C5' U   B  23       7.956 -16.241  32.574  0.00  0.00    +0.000 C 
BRANCH13201321
ATOM   1321  O5' U   B  23       7.728 -16.078  31.177  0.00  0.00    +0.000 OA
BRANCH13211322
ATOM   1322  P   U   B  23       8.659 -15.146  30.281  0.00  0.00    +0.000 P 
ATOM   1323  OP2 U   B  23       7.812 -14.528  29.220  0.00  0.00    +0.000 OA
BRANCH13221324
ATOM   1324  OP1 U   B  23       9.861 -15.919  29.896  0.00  0.00    +0.000 OA
ATOM   1325  H   U   B  23       9.612 -16.608  29.260  0.00  0.00    +0.000 HD
ENDBRANCH13221324
BRANCH13221326
ATOM   1326  O3' C   B  22       9.113 -14.057  31.299  0.00  0.00    +0.000 OA
BRANCH13261329
ATOM   1327  C4' C   B  22       9.846 -11.803  30.832  0.00  0.00    +0.000 C 
ATOM   1328  O4' C   B  22       9.476 -10.507  31.362  0.00  0.00    +0.000 OA
ATOM   1329  C3' C   B  22       8.695 -12.704  31.214  0.00  0.00    +0.000 C 
ATOM   1330  C2' C   B  22       8.254 -12.156  32.568  0.00  0.00    +0.000 C 
ATOM   1331  C1' C   B  22       8.561 -10.661  32.425  0.00  0.00    +0.000 C 
BRANCH13311332
ATOM   1332  N1  C   B  22       7.378  -9.818  32.163  0.00  0.00    +0.000 N 
ATOM   1333  C2  C   B  22       6.520  -9.504  33.220  0.00  0.00    +0.000 A 
ATOM   1334  O2  C   B  22       6.767  -9.953  34.350  0.00  0.00    +0.000 OA
ATOM   1335  N3  C   B  22       5.439  -8.722  32.992  0.00  0.00    +0.000 NA
ATOM   1336  C4  C   B  22       5.199  -8.251  31.766  0.00  0.00    +0.000 A 
ATOM   1337  N4  C   B  22       4.121  -7.482  31.587  0.00  0.00    +0.000 N 
ATOM   1338  C5  C   B  22       6.059  -8.550  30.670  0.00  0.00    +0.000 A 
ATOM   1339  C6  C   B  22       7.124  -9.326  30.910  0.00  0.00    +0.000 A 
ATOM   1340  H   C   B  22       3.917  -7.120  30.694  0.00  0.00    +0.000 HD
ATOM   1341  H   C   B  22       3.530  -7.278  32.348  0.00  0.00    +0.000 HD
ENDBRANCH13311332
BRANCH13301342
ATOM   1342  O2' C   B  22       9.022 -12.683  33.633  0.00  0.00    +0.000 OA
ATOM   1343  H   C   B  22       9.961 -12.492  33.480  0.00  0.00    +0.000 HD
ENDBRANCH13301342
BRANCH13271344
ATOM   1344  C5' C   B  22      10.122 -11.688  29.351  0.00  0.00    +0.000 C 
BRANCH13441345
ATOM   1345  O5' C   B  22       9.012 -11.114  28.665  0.00  0.00    +0.000 OA
BRANCH13451346
ATOM   1346  P   C   B  22       9.146 -10.565  27.177  0.00  0.00    +0.000 P 
ATOM   1347  OP1 C   B  22       9.648 -11.663  26.314  0.00  0.00    +0.000 OA
BRANCH13461348
ATOM   1348  OP2 C   B  22       7.876  -9.874  26.821  0.00  0.00    +0.000 OA
ATOM   1349  H   C   B  22       7.937  -9.531  25.916  0.00  0.00    +0.000 HD
ENDBRANCH13461348
BRANCH13461350
ATOM   1350  O3' A   B  21      10.312  -9.476  27.293  0.00  0.00    +0.000 OA
BRANCH13501353
ATOM   1351  C4' A   B  21      10.917  -7.108  27.301  0.00  0.00    +0.000 C 
ATOM   1352  O4' A   B  21      10.898  -6.074  28.317  0.00  0.00    +0.000 OA
ATOM   1353  C3' A   B  21      10.048  -8.210  27.880  0.00  0.00    +0.000 C 
ATOM   1354  C2' A   B  21      10.406  -8.150  29.357  0.00  0.00    +0.000 C 
ATOM   1355  C1' A   B  21      10.577  -6.644  29.572  0.00  0.00    +0.000 C 
BRANCH13551356
ATOM   1356  N9  A   B  21       9.359  -6.005  30.090  0.00  0.00    +0.000 N 
ATOM   1357  C8  A   B  21       8.483  -5.182  29.429  0.00  0.00    +0.000 A 
ATOM   1358  N7  A   B  21       7.483  -4.770  30.173  0.00  0.00    +0.000 NA
ATOM   1359  C5  A   B  21       7.718  -5.360  31.406  0.00  0.00    +0.000 A 
ATOM   1360  C6  A   B  21       7.024  -5.318  32.624  0.00  0.00    +0.000 A 
ATOM   1361  N6  A   B  21       5.894  -4.622  32.806  0.00  0.00    +0.000 N 
ATOM   1362  N1  A   B  21       7.525  -6.018  33.659  0.00  0.00    +0.000 NA
ATOM   1363  C2  A   B  21       8.654  -6.714  33.474  0.00  0.00    +0.000 A 
ATOM   1364  N3  A   B  21       9.399  -6.830  32.379  0.00  0.00    +0.000 NA
ATOM   1365  C4  A   B  21       8.870  -6.121  31.370  0.00  0.00    +0.000 A 
ATOM   1366  H   A   B  21       5.510  -4.103  32.063  0.00  0.00    +0.000 HD
ATOM   1367  H   A   B  21       5.447  -4.629  33.683  0.00  0.00    +0.000 HD
ENDBRANCH13551356
BRANCH13541368
ATOM   1368  O2' A   B  21      11.638  -8.795  29.627  0.00  0.00    +0.000 OA
ATOM   1369  H   A   B  21      12.337  -8.398  29.083  0.00  0.00    +0.000 HD
ENDBRANCH13541368
BRANCH13511370
ATOM   1370  C5' A   B  21      10.471  -6.540  25.974  0.00  0.00    +0.000 C 
BRANCH13701371
ATOM   1371  O5' A   B  21       9.214  -5.885  26.093  0.00  0.00    +0.000 OA
BRANCH13711372
ATOM   1372  P   A   B  21       8.685  -4.919  24.936  0.00  0.00    +0.000 P 
ATOM   1373  OP1 A   B  21       8.794  -5.642  23.647  0.00  0.00    +0.000 OA
BRANCH13721374
ATOM   1374  OP2 A   B  21       7.373  -4.369  25.365  0.00  0.00    +0.000 OA
ATOM   1375  H   A   B  21       7.030  -3.777  24.677  0.00  0.00    +0.000 HD
ENDBRANCH13721374
BRANCH13721376
ATOM   1376  O3' A   B  20       9.748  -3.733  24.920  0.00  0.00    +0.000 OA
BRANCH13761379
ATOM   1377  C4' A   B  20      10.308  -1.417  25.503  0.00  0.00    +0.000 C 
ATOM   1378  O4' A   B  20      10.689  -0.765  26.744  0.00  0.00    +0.000 OA
ATOM   1379  C3' A   B  20       9.765  -2.762  25.955  0.00  0.00    +0.000 C 
ATOM   1380  C2' A   B  20      10.711  -3.109  27.096  0.00  0.00    +0.000 C 
ATOM   1381  C1' A   B  20      10.911  -1.740  27.745  0.00  0.00    +0.000 C 
BRANCH13811382
ATOM   1382  N9  A   B  20       9.964  -1.520  28.848  0.00  0.00    +0.000 N 
ATOM   1383  C8  A   B  20       8.832  -0.746  28.864  0.00  0.00    +0.000 A 
ATOM   1384  N7  A   B  20       8.195  -0.772  30.011  0.00  0.00    +0.000 NA
ATOM   1385  C5  A   B  20       8.957  -1.620  30.802  0.00  0.00    +0.000 A 
ATOM   1386  C6  A   B  20       8.818  -2.066  32.124  0.00  0.00    +0.000 A 
ATOM   1387  N6  A   B  20       7.809  -1.696  32.924  0.00  0.00    +0.000 N 
ATOM   1388  N1  A   B  20       9.751  -2.909  32.607  0.00  0.00    +0.000 NA
ATOM   1389  C2  A   B  20      10.756  -3.279  31.805  0.00  0.00    +0.000 A 
ATOM   1390  N3  A   B  20      10.998  -2.927  30.542  0.00  0.00    +0.000 NA
ATOM   1391  C4  A   B  20      10.049  -2.088  30.096  0.00  0.00    +0.000 A 
ATOM   1392  H   A   B  20       7.117  -1.081  32.591  0.00  0.00    +0.000 HD
ATOM   1393  H   A   B  20       7.760  -2.039  33.845  0.00  0.00    +0.000 HD
ENDBRANCH13811382
BRANCH13801394
ATOM   1394  O2' A   B  20      11.958  -3.576  26.618  0.00  0.00    +0.000 OA
ATOM   1395  H   A   B  20      12.347  -2.912  26.027  0.00  0.00    +0.000 HD
ENDBRANCH13801394
BRANCH13771396
ATOM   1396  C5' A   B  20       9.355  -0.538  24.728  0.00  0.00    +0.000 C 
BRANCH13961397
ATOM   1397  O5' A   B  20       8.221  -0.185  25.511  0.00  0.00    +0.000 OA
BRANCH13971398
ATOM   1398  P   A   B  20       7.268   1.018  25.069  0.00  0.00    +0.000 P 
ATOM   1399  OP1 A   B  20       6.942   0.841  23.634  0.00  0.00    +0.000 OA
BRANCH13981400
ATOM   1400  OP2 A   B  20       6.175   1.125  26.069  0.00  0.00    +0.000 OA
ATOM   1401  H   A   B  20       5.581   1.851  25.822  0.00  0.00    +0.000 HD
ENDBRANCH13981400
BRANCH13981402
ATOM   1402  O3' A   B  19       8.199   2.300  25.207  0.00  0.00    +0.000 OA
BRANCH14021405
ATOM   1403  C4' A   B  19       8.691   4.329  26.487  0.00  0.00    +0.000 C 
ATOM   1404  O4' A   B  19       9.498   4.597  27.665  0.00  0.00    +0.000 OA
ATOM   1405  C3' A   B  19       8.534   2.819  26.489  0.00  0.00    +0.000 C 
ATOM   1406  C2' A   B  19       9.892   2.358  27.000  0.00  0.00    +0.000 C 
ATOM   1407  C1' A   B  19      10.195   3.426  28.046  0.00  0.00    +0.000 C 
BRANCH14071408
ATOM   1408  N9  A   B  19       9.745   3.024  29.389  0.00  0.00    +0.000 N 
ATOM   1409  C8  A   B  19       8.631   3.443  30.068  0.00  0.00    +0.000 A 
ATOM   1410  N7  A   B  19       8.503   2.895  31.254  0.00  0.00    +0.000 NA
ATOM   1411  C5  A   B  19       9.605   2.059  31.363  0.00  0.00    +0.000 A 
ATOM   1412  C6  A   B  19      10.047   1.198  32.378  0.00  0.00    +0.000 A 
ATOM   1413  N6  A   B  19       9.397   1.030  33.538  0.00  0.00    +0.000 N 
ATOM   1414  N1  A   B  19      11.185   0.506  32.167  0.00  0.00    +0.000 NA
ATOM   1415  C2  A   B  19      11.834   0.674  31.007  0.00  0.00    +0.000 A 
ATOM   1416  N3  A   B  19      11.519   1.455  29.974  0.00  0.00    +0.000 NA
ATOM   1417  C4  A   B  19      10.380   2.128  30.218  0.00  0.00    +0.000 A 
ATOM   1418  H   A   B  19       8.564   1.526  33.712  0.00  0.00    +0.000 HD
ATOM   1419  H   A   B  19       9.752   0.411  34.216  0.00  0.00    +0.000 HD
ENDBRANCH14071408
BRANCH14061420
ATOM   1420  O2' A   B  19      10.879   2.413  25.987  0.00  0.00    +0.000 OA
ATOM   1421  H   A   B  19      10.925   3.313  25.629  0.00  0.00    +0.000 HD
ENDBRANCH14061420
BRANCH14031422
ATOM   1422  C5' A   B  19       7.407   5.118  26.551  0.00  0.00    +0.000 C 
BRANCH14221423
ATOM   1423  O5' A   B  19       6.621   4.729  27.672  0.00  0.00    +0.000 OA
BRANCH14231424
ATOM   1424  P   A   B  19       5.292   5.524  28.050  0.00  0.00    +0.000 P 
ATOM   1425  OP1 A   B  19       4.468   5.651  26.822  0.00  0.00    +0.000 OA
BRANCH14241426
ATOM   1426  OP2 A   B  19       4.710   4.901  29.269  0.00  0.00    +0.000 OA
ATOM   1427  H   A   B  19       4.379   4.015  29.053  0.00  0.00    +0.000 HD
ENDBRANCH14241426
BRANCH14241428
ATOM   1428  O3' G   B  18       5.826   6.967  28.423  0.00  0.00    +0.000 OA
BRANCH14281431
ATOM   1429  C4' G   B  18       6.216   8.600  30.194  0.00  0.00    +0.000 C 
ATOM   1430  O4' G   B  18       7.306   8.816  31.135  0.00  0.00    +0.000 OA
ATOM   1431  C3' G   B  18       6.464   7.199  29.674  0.00  0.00    +0.000 C 
ATOM   1432  C2' G   B  18       7.982   7.146  29.608  0.00  0.00    +0.000 C 
ATOM   1433  C1' G   B  18       8.365   7.931  30.855  0.00  0.00    +0.000 C 
BRANCH14331434
ATOM   1434  N9  G   B  18       8.568   7.056  32.020  0.00  0.00    +0.000 N 
ATOM   1435  C8  G   B  18       7.779   6.959  33.142  0.00  0.00    +0.000 A 
ATOM   1436  N7  G   B  18       8.215   6.080  34.000  0.00  0.00    +0.000 NA
ATOM   1437  C5  G   B  18       9.364   5.568  33.417  0.00  0.00    +0.000 A 
ATOM   1438  C6  G   B  18      10.268   4.581  33.878  0.00  0.00    +0.000 A 
ATOM   1439  O6  G   B  18      10.237   3.938  34.936  0.00  0.00    +0.000 OA
ATOM   1440  N1  G   B  18      11.300   4.359  32.973  0.00  0.00    +0.000 NA
ATOM   1441  C2  G   B  18      11.439   5.008  31.773  0.00  0.00    +0.000 A 
ATOM   1442  N2  G   B  18      12.501   4.663  31.027  0.00  0.00    +0.000 N 
ATOM   1443  N3  G   B  18      10.606   5.931  31.327  0.00  0.00    +0.000 N 
ATOM   1444  C4  G   B  18       9.598   6.160  32.195  0.00  0.00    +0.000 A 
ATOM   1445  H   G   B  18      12.652   5.096  30.156  0.00  0.00    +0.000 HD
ATOM   1446  H   G   B  18      13.129   3.977  31.351  0.00  0.00    +0.000 HD
ATOM   1447  H   G   B  18      10.708   6.396  30.465  0.00  0.00    +0.000 HD
ENDBRANCH14331434
BRANCH14321448
ATOM   1448  O2' G   B  18       8.483   7.819  28.470  0.00  0.00    +0.000 OA
ATOM   1449  H   G   B  18       8.165   8.736  28.470  0.00  0.00    +0.000 HD
ENDBRANCH14321448
BRANCH14291450
ATOM   1450  C5' G   B  18       4.889   8.837  30.864  0.00  0.00    +0.000 C 
BRANCH14501451
ATOM   1451  O5' G   B  18       5.051   9.227  32.222  0.00  0.00    +0.000 OA
BRANCH14511452
ATOM   1452  P   G   B  18       4.030  10.233  32.922  0.00  0.00    +0.000 P 
ATOM   1453  OP1 G   B  18       2.720  10.132  32.237  0.00  0.00    +0.000 OA
BRANCH14521454
ATOM   1454  OP2 G   B  18       4.108  10.004  34.378  0.00  0.00    +0.000 OA
ATOM   1455  H   G   B  18       3.747   9.128  34.587  0.00  0.00    +0.000 HD
ENDBRANCH14521454
BRANCH14521456
ATOM   1456  O3' C   B  17       4.621  11.663  32.588  0.00  0.00    +0.000 OA
BRANCH14561459
ATOM   1457  C4' C   B  17       6.356  13.105  33.541  0.00  0.00    +0.000 C 
ATOM   1458  O4' C   B  17       7.676  13.512  33.090  0.00  0.00    +0.000 OA
ATOM   1459  C3' C   B  17       6.024  11.910  32.673  0.00  0.00    +0.000 C 
ATOM   1460  C2' C   B  17       6.648  12.296  31.337  0.00  0.00    +0.000 C 
ATOM   1461  C1' C   B  17       7.924  13.002  31.797  0.00  0.00    +0.000 C 
BRANCH14611462
ATOM   1462  N1  C   B  17       9.086  12.085  31.863  0.00  0.00    +0.000 N 
ATOM   1463  C2  C   B  17       9.727  11.717  30.677  0.00  0.00    +0.000 A 
ATOM   1464  O2  C   B  17       9.311  12.169  29.595  0.00  0.00    +0.000 OA
ATOM   1465  N3  C   B  17      10.790  10.880  30.731  0.00  0.00    +0.000 NA
ATOM   1466  C4  C   B  17      11.215  10.410  31.906  0.00  0.00    +0.000 A 
ATOM   1467  N4  C   B  17      12.266   9.583  31.909  0.00  0.00    +0.000 N 
ATOM   1468  C5  C   B  17      10.579  10.770  33.127  0.00  0.00    +0.000 A 
ATOM   1469  C6  C   B  17       9.532  11.602  33.061  0.00  0.00    +0.000 A 
ATOM   1470  H   C   B  17      12.702   9.338  31.061  0.00  0.00    +0.000 HD
ATOM   1471  H   C   B  17      12.604   9.220  32.759  0.00  0.00    +0.000 HD
ENDBRANCH14611462
BRANCH14601472
ATOM   1472  O2' C   B  17       5.842  13.210  30.620  0.00  0.00    +0.000 OA
ATOM   1473  H   C   B  17       5.678  13.994  31.167  0.00  0.00    +0.000 HD
ENDBRANCH14601472
BRANCH14571474
ATOM   1474  C5' C   B  17       6.384  12.843  35.025  0.00  0.00    +0.000 C 
BRANCH14741475
ATOM   1475  O5' C   B  17       7.278  11.780  35.337  0.00  0.00    +0.000 OA
BRANCH14751476
ATOM   1476  P   C   B  17       7.558  11.352  36.844  0.00  0.00    +0.000 P 
ATOM   1477  OP2 C   B  17       8.430  10.148  36.822  0.00  0.00    +0.000 OA
BRANCH14761478
ATOM   1478  OP1 C   B  17       6.260  11.303  37.560  0.00  0.00    +0.000 OA
ATOM   1479  H   C   B  17       5.734  10.559  37.226  0.00  0.00    +0.000 HD
ENDBRANCH14761478
BRANCH14761480
ATOM   1480  O3' C   B  16       8.382  12.578  37.419  0.00  0.00    +0.000 OA
BRANCH14801501
ATOM   1481  C4' U   B  15      16.698  11.752  36.012  0.00  0.00    +0.000 C 
ATOM   1482  O4' U   B  15      16.712  12.550  34.790  0.00  0.00    +0.000 OA
ATOM   1483  C3' U   B  15      15.406  10.939  35.982  0.00  0.00    +0.000 C 
ATOM   1484  O3' U   B  15      14.390  11.604  36.717  0.00  0.00    +0.000 OA
ATOM   1485  C2' U   B  15      15.045  10.925  34.505  0.00  0.00    +0.000 C 
ATOM   1486  C1' U   B  15      15.539  12.292  34.043  0.00  0.00    +0.000 C 
ATOM   1487  N1  U   B  15      15.874  12.320  32.605  0.00  0.00    +0.000 N 
ATOM   1488  C2  U   B  15      15.136  13.142  31.778  0.00  0.00    +0.000 A 
ATOM   1489  O2  U   B  15      14.230  13.852  32.178  0.00  0.00    +0.000 OA
ATOM   1490  N3  U   B  15      15.494  13.102  30.448  0.00  0.00    +0.000 NA
ATOM   1491  C4  U   B  15      16.497  12.346  29.887  0.00  0.00    +0.000 A 
ATOM   1492  O4  U   B  15      16.701  12.419  28.678  0.00  0.00    +0.000 OA
ATOM   1493  C5  U   B  15      17.217  11.519  30.810  0.00  0.00    +0.000 A 
ATOM   1494  C6  U   B  15      16.887  11.533  32.108  0.00  0.00    +0.000 A 
ATOM   1495  P   C   B  16      13.976  10.972  38.143  0.00  0.00    +0.000 P 
ATOM   1496  OP2 C   B  16      13.552   9.557  37.940  0.00  0.00    +0.000 OA
ATOM   1497  O5' C   B  16      12.680  11.808  38.551  0.00  0.00    +0.000 OA
ATOM   1498  C5' C   B  16      11.473  11.679  37.814  0.00  0.00    +0.000 C 
ATOM   1499  C4' C   B  16      10.766  13.010  37.716  0.00  0.00    +0.000 C 
ATOM   1500  O4' C   B  16      11.680  14.009  37.169  0.00  0.00    +0.000 OA
ATOM   1501  C3' C   B  16       9.577  13.020  36.780  0.00  0.00    +0.000 C 
ATOM   1502  C2' C   B  16       9.519  14.470  36.334  0.00  0.00    +0.000 C 
ATOM   1503  C1' C   B  16      11.010  14.812  36.230  0.00  0.00    +0.000 C 
ATOM   1504  N1  C   B  16      11.575  14.509  34.896  0.00  0.00    +0.000 N 
ATOM   1505  C2  C   B  16      11.214  15.282  33.794  0.00  0.00    +0.000 A 
ATOM   1506  O2  C   B  16      10.420  16.224  33.939  0.00  0.00    +0.000 OA
ATOM   1507  N3  C   B  16      11.744  14.992  32.581  0.00  0.00    +0.000 NA
ATOM   1508  C4  C   B  16      12.595  13.972  32.445  0.00  0.00    +0.000 A 
ATOM   1509  N4  C   B  16      13.089  13.720  31.233  0.00  0.00    +0.000 N 
ATOM   1510  C5  C   B  16      12.980  13.172  33.547  0.00  0.00    +0.000 A 
ATOM   1511  C6  C   B  16      12.457  13.469  34.742  0.00  0.00    +0.000 A 
ATOM   1512  H   C   B  16      12.848  13.551  30.294  0.00  0.00    +0.000 HD
BRANCH14951513
ATOM   1513  OP1 C   B  16      15.050  11.279  39.119  0.00  0.00    +0.000 OA
ATOM   1514  H   C   B  16      15.849  10.780  38.888  0.00  0.00    +0.000 HD
ENDBRANCH14951513
BRANCH15021515
ATOM   1515  O2' C   B  16       8.917  15.317  37.298  0.00  0.00    +0.000 OA
ATOM   1516  H   C   B  16       9.397  15.243  38.138  0.00  0.00    +0.000 HD
ENDBRANCH15021515
BRANCH14851517
ATOM   1517  O2' U   B  15      13.664  10.763  34.224  0.00  0.00    +0.000 OA
ATOM   1518  H   U   B  15      13.163  11.484  34.637  0.00  0.00    +0.000 HD
ENDBRANCH14851517
BRANCH14811519
ATOM   1519  C5' U   B  15      17.965  10.930  36.073  0.00  0.00    +0.000 C 
BRANCH15191520
ATOM   1520  O5' U   B  15      17.952   9.934  35.068  0.00  0.00    +0.000 OA
BRANCH15201521
ATOM   1521  P   U   B  15      19.294   9.306  34.504  0.00  0.00    +0.000 P 
ATOM   1522  OP1 U   B  15      20.178  10.393  34.041  0.00  0.00    +0.000 OA
BRANCH15211523
ATOM   1523  OP2 U   B  15      19.797   8.334  35.509  0.00  0.00    +0.000 OA
ATOM   1524  H   U   B  15      20.620   7.934  35.188  0.00  0.00    +0.000 HD
ENDBRANCH15211523
BRANCH15211525
ATOM   1525  O3' A   B  14      18.778   8.502  33.221  0.00  0.00    +0.000 OA
BRANCH15251528
ATOM   1526  C4' A   B  14      18.156   6.297  32.381  0.00  0.00    +0.000 C 
ATOM   1527  O4' A   B  14      16.915   5.543  32.373  0.00  0.00    +0.000 OA
ATOM   1528  C3' A   B  14      17.890   7.409  33.374  0.00  0.00    +0.000 C 
ATOM   1529  C2' A   B  14      16.438   7.755  33.078  0.00  0.00    +0.000 C 
ATOM   1530  C1' A   B  14      15.853   6.370  32.809  0.00  0.00    +0.000 C 
BRANCH15301531
ATOM   1531  N9  A   B  14      15.256   5.783  34.015  0.00  0.00    +0.000 N 
ATOM   1532  C8  A   B  14      15.779   4.823  34.842  0.00  0.00    +0.000 A 
ATOM   1533  N7  A   B  14      14.995   4.519  35.850  0.00  0.00    +0.000 NA
ATOM   1534  C5  A   B  14      13.885   5.335  35.670  0.00  0.00    +0.000 A 
ATOM   1535  C6  A   B  14      12.699   5.495  36.401  0.00  0.00    +0.000 A 
ATOM   1536  N6  A   B  14      12.421   4.810  37.514  0.00  0.00    +0.000 N 
ATOM   1537  N1  A   B  14      11.796   6.390  35.954  0.00  0.00    +0.000 NA
ATOM   1538  C2  A   B  14      12.077   7.076  34.843  0.00  0.00    +0.000 A 
ATOM   1539  N3  A   B  14      13.156   7.015  34.068  0.00  0.00    +0.000 NA
ATOM   1540  C4  A   B  14      14.031   6.115  34.544  0.00  0.00    +0.000 A 
ATOM   1541  H   A   B  14      13.065   4.151  37.860  0.00  0.00    +0.000 HD
ATOM   1542  H   A   B  14      11.572   4.965  37.988  0.00  0.00    +0.000 HD
ENDBRANCH15301531
BRANCH15291543
ATOM   1543  O2' A   B  14      16.313   8.546  31.918  0.00  0.00    +0.000 OA
ATOM   1544  H   A   B  14      16.724   8.088  31.168  0.00  0.00    +0.000 HD
ENDBRANCH15291543
BRANCH15261545
ATOM   1545  C5' A   B  14      19.314   5.388  32.702  0.00  0.00    +0.000 C 
BRANCH15451546
ATOM   1546  O5' A   B  14      19.179   4.826  33.994  0.00  0.00    +0.000 OA
BRANCH15461547
ATOM   1547  P   A   B  14      20.166   3.669  34.478  0.00  0.00    +0.000 P 
ATOM   1548  OP1 A   B  14      21.556   4.123  34.274  0.00  0.00    +0.000 OA
BRANCH15471549
ATOM   1549  OP2 A   B  14      19.725   3.242  35.830  0.00  0.00    +0.000 OA
ATOM   1550  H   A   B  14      18.793   2.975  35.797  0.00  0.00    +0.000 HD
ENDBRANCH15471549
BRANCH15471551
ATOM   1551  O3' C   B  13      19.866   2.486  33.441  0.00  0.00    +0.000 OA
BRANCH15511554
ATOM   1552  C4' C   B  13      18.721   0.346  33.105  0.00  0.00    +0.000 C 
ATOM   1553  O4' C   B  13      17.348  -0.014  32.794  0.00  0.00    +0.000 OA
ATOM   1554  C3' C   B  13      18.623   1.806  33.499  0.00  0.00    +0.000 C 
ATOM   1555  C2' C   B  13      17.598   2.329  32.502  0.00  0.00    +0.000 C 
ATOM   1556  C1' C   B  13      16.622   1.152  32.437  0.00  0.00    +0.000 C 
BRANCH15561557
ATOM   1557  N1  C   B  13      15.486   1.321  33.371  0.00  0.00    +0.000 N 
ATOM   1558  C2  C   B  13      14.426   2.152  32.978  0.00  0.00    +0.000 A 
ATOM   1559  O2  C   B  13      14.469   2.702  31.868  0.00  0.00    +0.000 OA
ATOM   1560  N3  C   B  13      13.380   2.334  33.818  0.00  0.00    +0.000 NA
ATOM   1561  C4  C   B  13      13.367   1.729  35.005  0.00  0.00    +0.000 A 
ATOM   1562  N4  C   B  13      12.317   1.940  35.798  0.00  0.00    +0.000 N 
ATOM   1563  C5  C   B  13      14.431   0.880  35.429  0.00  0.00    +0.000 A 
ATOM   1564  C6  C   B  13      15.459   0.708  34.589  0.00  0.00    +0.000 A 
ATOM   1565  H   C   B  13      11.585   2.527  35.500  0.00  0.00    +0.000 HD
ATOM   1566  H   C   B  13      12.273   1.509  36.682  0.00  0.00    +0.000 HD
ENDBRANCH15561557
BRANCH15551567
ATOM   1567  O2' C   B  13      18.161   2.535  31.225  0.00  0.00    +0.000 OA
ATOM   1568  H   C   B  13      18.563   1.710  30.912  0.00  0.00    +0.000 HD
ENDBRANCH15551567
BRANCH15521569
ATOM   1569  C5' C   B  13      19.287  -0.590  34.143  0.00  0.00    +0.000 C 
BRANCH15691570
ATOM   1570  O5' C   B  13      18.582  -0.489  35.370  0.00  0.00    +0.000 OA
BRANCH15701571
ATOM   1571  P   C   B  13      18.825  -1.552  36.533  0.00  0.00    +0.000 P 
ATOM   1572  OP1 C   B  13      20.281  -1.628  36.797  0.00  0.00    +0.000 OA
BRANCH15711573
ATOM   1573  OP2 C   B  13      17.891  -1.230  37.644  0.00  0.00    +0.000 OA
ATOM   1574  H   C   B  13      16.981  -1.219  37.308  0.00  0.00    +0.000 HD
ENDBRANCH15711573
BRANCH15711575
ATOM   1575  O3' U   B  12      18.377  -2.934  35.870  0.00  0.00    +0.000 OA
BRANCH15751578
ATOM   1576  C4' U   B  12      16.667  -4.682  35.775  0.00  0.00    +0.000 C 
ATOM   1577  O4' U   B  12      15.382  -4.792  35.100  0.00  0.00    +0.000 OA
ATOM   1578  C3' U   B  12      16.995  -3.206  35.682  0.00  0.00    +0.000 C 
ATOM   1579  C2' U   B  12      16.491  -2.853  34.288  0.00  0.00    +0.000 C 
ATOM   1580  C1' U   B  12      15.217  -3.702  34.211  0.00  0.00    +0.000 C 
BRANCH15801581
ATOM   1581  N1  U   B  12      14.010  -2.942  34.607  0.00  0.00    +0.000 N 
ATOM   1582  C2  U   B  12      13.442  -2.111  33.654  0.00  0.00    +0.000 A 
ATOM   1583  O2  U   B  12      13.893  -1.989  32.530  0.00  0.00    +0.000 OA
ATOM   1584  N3  U   B  12      12.326  -1.426  34.069  0.00  0.00    +0.000 N 
ATOM   1585  C4  U   B  12      11.735  -1.487  35.310  0.00  0.00    +0.000 A 
ATOM   1586  O4  U   B  12      10.734  -0.808  35.536  0.00  0.00    +0.000 OA
ATOM   1587  C5  U   B  12      12.379  -2.366  36.237  0.00  0.00    +0.000 A 
ATOM   1588  C6  U   B  12      13.467  -3.047  35.862  0.00  0.00    +0.000 A 
ATOM   1589  H   U   B  12      11.905  -0.829  33.409  0.00  0.00    +0.000 HD
ENDBRANCH15801581
BRANCH15791590
ATOM   1590  O2' U   B  12      17.388  -3.278  33.281  0.00  0.00    +0.000 OA
ATOM   1591  H   U   B  12      17.543  -4.232  33.368  0.00  0.00    +0.000 HD
ENDBRANCH15791590
BRANCH15761592
ATOM   1592  C5' U   B  12      16.571  -5.252  37.167  0.00  0.00    +0.000 C 
BRANCH15921593
ATOM   1593  O5' U   B  12      15.690  -4.489  37.981  0.00  0.00    +0.000 OA
BRANCH15931594
ATOM   1594  P   U   B  12      15.266  -5.000  39.429  0.00  0.00    +0.000 P 
ATOM   1595  OP2 U   B  12      14.287  -4.030  39.989  0.00  0.00    +0.000 OA
BRANCH15941596
ATOM   1596  OP1 U   B  12      16.498  -5.321  40.187  0.00  0.00    +0.000 OA
ATOM   1597  H   U   B  12      17.026  -5.965  39.689  0.00  0.00    +0.000 HD
ENDBRANCH15941596
BRANCH15941598
ATOM   1598  O3' U   B  11      14.508  -6.377  39.119  0.00  0.00    +0.000 OA
BRANCH15981601
ATOM   1599  C4' U   B  11      12.369  -7.555  39.054  0.00  0.00    +0.000 C 
ATOM   1600  O4' U   B  11      11.287  -7.621  38.083  0.00  0.00    +0.000 OA
ATOM   1601  C3' U   B  11      13.181  -6.355  38.611  0.00  0.00    +0.000 C 
ATOM   1602  C2' U   B  11      13.112  -6.458  37.094  0.00  0.00    +0.000 C 
ATOM   1603  C1' U   B  11      11.674  -6.956  36.893  0.00  0.00    +0.000 C 
BRANCH16031604
ATOM   1604  N1  U   B  11      10.724  -5.855  36.631  0.00  0.00    +0.000 N 
ATOM   1605  C2  U   B  11      10.710  -5.306  35.356  0.00  0.00    +0.000 A 
ATOM   1606  O2  U   B  11      11.442  -5.688  34.461  0.00  0.00    +0.000 OA
ATOM   1607  N3  U   B  11       9.807  -4.288  35.166  0.00  0.00    +0.000 N 
ATOM   1608  C4  U   B  11       8.934  -3.773  36.098  0.00  0.00    +0.000 A 
ATOM   1609  O4  U   B  11       8.181  -2.854  35.776  0.00  0.00    +0.000 OA
ATOM   1610  C5  U   B  11       9.008  -4.391  37.388  0.00  0.00    +0.000 A 
ATOM   1611  C6  U   B  11       9.879  -5.386  37.604  0.00  0.00    +0.000 A 
ATOM   1612  H   U   B  11       9.781  -3.884  34.269  0.00  0.00    +0.000 HD
ENDBRANCH16031604
BRANCH16021613
ATOM   1613  O2' U   B  11      14.007  -7.431  36.594  0.00  0.00    +0.000 OA
ATOM   1614  H   U   B  11      13.823  -8.286  37.014  0.00  0.00    +0.000 HD
ENDBRANCH16021613
BRANCH15991615
ATOM   1615  C5' U   B  11      11.802  -7.487  40.452  0.00  0.00    +0.000 C 
BRANCH16151616
ATOM   1616  O5' U   B  11      11.046  -6.300  40.648  0.00  0.00    +0.000 OA
BRANCH16161617
ATOM   1617  P   U   B  11      10.243  -6.050  42.002  0.00  0.00    +0.000 P 
ATOM   1618  OP2 U   B  11       9.504  -4.765  41.868  0.00  0.00    +0.000 OA
BRANCH16171619
ATOM   1619  OP1 U   B  11      11.180  -6.246  43.133  0.00  0.00    +0.000 OA
ATOM   1620  H   U   B  11      11.832  -5.528  43.141  0.00  0.00    +0.000 HD
ENDBRANCH16171619
BRANCH16171621
ATOM   1621  O3' U   B  10       9.183  -7.252  42.022  0.00  0.00    +0.000 OA
BRANCH16211624
ATOM   1622  C4' U   B  10       6.861  -7.956  41.721  0.00  0.00    +0.000 C 
ATOM   1623  O4' U   B  10       6.040  -8.242  40.553  0.00  0.00    +0.000 OA
ATOM   1624  C3' U   B  10       8.057  -7.223  41.154  0.00  0.00    +0.000 C 
ATOM   1625  C2' U   B  10       8.291  -7.954  39.840  0.00  0.00    +0.000 C 
ATOM   1626  C1' U   B  10       6.849  -8.226  39.390  0.00  0.00    +0.000 C 
BRANCH16261627
ATOM   1627  N1  U   B  10       6.343  -7.190  38.465  0.00  0.00    +0.000 N 
ATOM   1628  C2  U   B  10       6.800  -7.217  37.156  0.00  0.00    +0.000 A 
ATOM   1629  O2  U   B  10       7.591  -8.047  36.743  0.00  0.00    +0.000 OA
ATOM   1630  N3  U   B  10       6.299  -6.231  36.342  0.00  0.00    +0.000 N 
ATOM   1631  C4  U   B  10       5.405  -5.243  36.691  0.00  0.00    +0.000 A 
ATOM   1632  O4  U   B  10       5.048  -4.426  35.844  0.00  0.00    +0.000 OA
ATOM   1633  C5  U   B  10       4.979  -5.284  38.057  0.00  0.00    +0.000 A 
ATOM   1634  C6  U   B  10       5.450  -6.234  38.875  0.00  0.00    +0.000 A 
ATOM   1635  H   U   B  10       6.612  -6.230  35.409  0.00  0.00    +0.000 HD
ENDBRANCH16261627
BRANCH16251636
ATOM   1636  O2' U   B  10       8.949  -9.190  40.037  0.00  0.00    +0.000 OA
ATOM   1637  H   U   B  10       8.437  -9.734  40.656  0.00  0.00    +0.000 HD
ENDBRANCH16251636
BRANCH16221638
ATOM   1638  C5' U   B  10       6.045  -7.204  42.747  0.00  0.00    +0.000 C 
BRANCH16381639
ATOM   1639  O5' U   B  10       5.587  -5.956  42.240  0.00  0.00    +0.000 OA
BRANCH16391640
ATOM   1640  P   U   B  10       4.544  -5.068  43.056  0.00  0.00    +0.000 P 
ATOM   1641  OP2 U   B  10       4.190  -3.888  42.221  0.00  0.00    +0.000 OA
BRANCH16401642
ATOM   1642  OP1 U   B  10       5.079  -4.868  44.424  0.00  0.00    +0.000 OA
ATOM   1643  H   U   B  10       5.860  -4.294  44.385  0.00  0.00    +0.000 HD
ENDBRANCH16401642
BRANCH16401644
ATOM   1644  O3' A   B   9       3.264  -6.015  43.162  0.00  0.00    +0.000 OA
BRANCH16441647
ATOM   1645  C4' A   B   9       0.974  -6.339  42.369  0.00  0.00    +0.000 C 
ATOM   1646  O4' A   B   9       0.390  -7.061  41.252  0.00  0.00    +0.000 OA
ATOM   1647  C3' A   B   9       2.447  -6.250  42.020  0.00  0.00    +0.000 C 
ATOM   1648  C2' A   B   9       2.703  -7.588  41.352  0.00  0.00    +0.000 C 
ATOM   1649  C1' A   B   9       1.401  -7.783  40.573  0.00  0.00    +0.000 C 
BRANCH16491650
ATOM   1650  N9  A   B   9       1.499  -7.270  39.196  0.00  0.00    +0.000 N 
ATOM   1651  C8  A   B   9       0.833  -6.204  38.653  0.00  0.00    +0.000 A 
ATOM   1652  N7  A   B   9       1.130  -5.982  37.391  0.00  0.00    +0.000 NA
ATOM   1653  C5  A   B   9       2.052  -6.973  37.086  0.00  0.00    +0.000 A 
ATOM   1654  C6  A   B   9       2.753  -7.284  35.908  0.00  0.00    +0.000 A 
ATOM   1655  N1  A   B   9       3.598  -8.336  35.937  0.00  0.00    +0.000 NA
ATOM   1656  C2  A   B   9       3.724  -9.025  37.079  0.00  0.00    +0.000 A 
ATOM   1657  N3  A   B   9       3.119  -8.826  38.250  0.00  0.00    +0.000 NA
ATOM   1658  C4  A   B   9       2.286  -7.774  38.185  0.00  0.00    +0.000 A 
BRANCH16541659
ATOM   1659  N6  A   B   9       2.628  -6.597  34.769  0.00  0.00    +0.000 N 
ATOM   1660  H   A   B   9       3.146  -6.862  33.975  0.00  0.00    +0.000 HD
ATOM   1661  H   A   B   9       2.018  -5.825  34.724  0.00  0.00    +0.000 HD
ENDBRANCH16541659
ENDBRANCH16491650
BRANCH16481662
ATOM   1662  O2' A   B   9       2.835  -8.630  42.301  0.00  0.00    +0.000 OA
ATOM   1663  H   A   B   9       2.043  -8.660  42.860  0.00  0.00    +0.000 HD
ENDBRANCH16481662
BRANCH16451664
ATOM   1664  C5' A   B   9       0.267  -5.017  42.544  0.00  0.00    +0.000 C 
BRANCH16641665
ATOM   1665  O5' A   B   9       0.485  -4.163  41.424  0.00  0.00    +0.000 OA
BRANCH16651666
ATOM   1666  P   A   B   9      -0.115  -2.691  41.385  0.00  0.00    +0.000 P 
ATOM   1667  OP2 A   B   9       0.207  -2.098  40.062  0.00  0.00    +0.000 OA
BRANCH16661668
ATOM   1668  OP1 A   B   9       0.301  -1.994  42.622  0.00  0.00    +0.000 OA
ATOM   1669  H   A   B   9       1.258  -1.835  42.597  0.00  0.00    +0.000 HD
ENDBRANCH16661668
BRANCH16661670
ATOM   1670  O3' U   B   8      -1.695  -2.937  41.460  0.00  0.00    +0.000 OA
BRANCH16701673
ATOM   1671  C4' U   B   8      -3.761  -2.772  40.179  0.00  0.00    +0.000 C 
ATOM   1672  O4' U   B   8      -4.510  -3.703  39.353  0.00  0.00    +0.000 OA
ATOM   1673  C3' U   B   8      -2.405  -3.418  40.327  0.00  0.00    +0.000 C 
ATOM   1674  C2' U   B   8      -2.753  -4.899  40.411  0.00  0.00    +0.000 C 
ATOM   1675  C1' U   B   8      -3.935  -4.992  39.436  0.00  0.00    +0.000 C 
BRANCH16751676
ATOM   1676  N1  U   B   8      -3.525  -5.420  38.080  0.00  0.00    +0.000 N 
ATOM   1677  C2  U   B   8      -3.440  -6.778  37.835  0.00  0.00    +0.000 A 
ATOM   1678  O2  U   B   8      -3.690  -7.620  38.680  0.00  0.00    +0.000 OA
ATOM   1679  N3  U   B   8      -3.053  -7.118  36.560  0.00  0.00    +0.000 N 
ATOM   1680  C4  U   B   8      -2.753  -6.258  35.528  0.00  0.00    +0.000 A 
ATOM   1681  O4  U   B   8      -2.420  -6.718  34.437  0.00  0.00    +0.000 OA
ATOM   1682  C5  U   B   8      -2.866  -4.872  35.858  0.00  0.00    +0.000 A 
ATOM   1683  C6  U   B   8      -3.239  -4.511  37.094  0.00  0.00    +0.000 A 
ATOM   1684  H   U   B   8      -2.983  -8.080  36.364  0.00  0.00    +0.000 HD
ENDBRANCH16751676
BRANCH16741685
ATOM   1685  O2' U   B   8      -3.195  -5.267  41.702  0.00  0.00    +0.000 OA
ATOM   1686  H   U   B   8      -3.955  -4.719  41.952  0.00  0.00    +0.000 HD
ENDBRANCH16741685
BRANCH16711687
ATOM   1687  C5' U   B   8      -3.768  -1.404  39.541  0.00  0.00    +0.000 C 
BRANCH16871688
ATOM   1688  O5' U   B   8      -3.062  -1.405  38.309  0.00  0.00    +0.000 OA
BRANCH16881689
ATOM   1689  P   U   B   8      -3.442  -0.403  37.139  0.00  0.00    +0.000 P 
ATOM   1690  OP2 U   B   8      -2.713  -0.830  35.921  0.00  0.00    +0.000 OA
BRANCH16891691
ATOM   1691  OP1 U   B   8      -3.293   0.984  37.634  0.00  0.00    +0.000 OA
ATOM   1692  H   U   B   8      -3.523   1.606  36.926  0.00  0.00    +0.000 HD
ENDBRANCH16891691
BRANCH16891693
ATOM   1693  O3' C   B   7      -4.992  -0.691  36.904  0.00  0.00    +0.000 OA
BRANCH16931696
ATOM   1694  C4' C   B   7      -6.228  -1.150  34.866  0.00  0.00    +0.000 C 
ATOM   1695  O4' C   B   7      -7.090  -2.237  34.435  0.00  0.00    +0.000 OA
ATOM   1696  C3' C   B   7      -5.449  -1.722  36.030  0.00  0.00    +0.000 C 
ATOM   1697  C2' C   B   7      -6.463  -2.656  36.687  0.00  0.00    +0.000 C 
ATOM   1698  C1' C   B   7      -7.227  -3.186  35.470  0.00  0.00    +0.000 C 
BRANCH16981699
ATOM   1699  N1  C   B   7      -6.731  -4.492  34.979  0.00  0.00    +0.000 N 
ATOM   1700  C2  C   B   7      -7.052  -5.655  35.683  0.00  0.00    +0.000 A 
ATOM   1701  O2  C   B   7      -7.741  -5.569  36.708  0.00  0.00    +0.000 OA
ATOM   1702  N3  C   B   7      -6.606  -6.850  35.231  0.00  0.00    +0.000 NA
ATOM   1703  C4  C   B   7      -5.866  -6.916  34.123  0.00  0.00    +0.000 A 
ATOM   1704  N4  C   B   7      -5.453  -8.112  33.718  0.00  0.00    +0.000 N 
ATOM   1705  C5  C   B   7      -5.524  -5.750  33.387  0.00  0.00    +0.000 A 
ATOM   1706  C6  C   B   7      -5.973  -4.574  33.841  0.00  0.00    +0.000 A 
ATOM   1707  H   C   B   7      -4.905  -8.194  32.904  0.00  0.00    +0.000 HD
ATOM   1708  H   C   B   7      -5.695  -8.916  34.232  0.00  0.00    +0.000 HD
ENDBRANCH16981699
BRANCH16971709
ATOM   1709  O2' C   B   7      -7.358  -1.949  37.533  0.00  0.00    +0.000 OA
ATOM   1710  H   C   B   7      -7.803  -1.253  37.024  0.00  0.00    +0.000 HD
ENDBRANCH16971709
BRANCH16941711
ATOM   1711  C5' C   B   7      -5.396  -0.672  33.704  0.00  0.00    +0.000 C 
BRANCH17111712
ATOM   1712  O5' C   B   7      -5.638   0.699  33.439  0.00  0.00    +0.000 OA
BRANCH17121713
ATOM   1713  P   C   B   7      -5.384   1.331  32.002  0.00  0.00    +0.000 P 
ATOM   1714  OP2 C   B   7      -4.476   0.433  31.245  0.00  0.00    +0.000 OA
BRANCH17131715
ATOM   1715  OP1 C   B   7      -5.015   2.761  32.177  0.00  0.00    +0.000 OA
ATOM   1716  H   C   B   7      -4.856   3.163  31.308  0.00  0.00    +0.000 HD
ENDBRANCH17131715
BRANCH17131717
ATOM   1717  O3' A   B   6      -6.814   1.289  31.300  0.00  0.00    +0.000 OA
BRANCH17171720
ATOM   1718  C4' A   B   6      -7.953   0.282  29.394  0.00  0.00    +0.000 C 
ATOM   1719  O4' A   B   6      -8.832  -0.867  29.241  0.00  0.00    +0.000 OA
ATOM   1720  C3' A   B   6      -7.323   0.077  30.753  0.00  0.00    +0.000 C 
ATOM   1721  C2' A   B   6      -8.469  -0.518  31.563  0.00  0.00    +0.000 C 
ATOM   1722  C1' A   B   6      -9.168  -1.387  30.513  0.00  0.00    +0.000 C 
BRANCH17221723
ATOM   1723  N9  A   B   6      -8.750  -2.796  30.576  0.00  0.00    +0.000 N 
ATOM   1724  C8  A   B   6      -7.852  -3.450  29.772  0.00  0.00    +0.000 A 
ATOM   1725  N7  A   B   6      -7.695  -4.718  30.083  0.00  0.00    +0.000 NA
ATOM   1726  C5  A   B   6      -8.548  -4.908  31.160  0.00  0.00    +0.000 A 
ATOM   1727  C6  A   B   6      -8.848  -6.032  31.946  0.00  0.00    +0.000 A 
ATOM   1728  N6  A   B   6      -8.289  -7.235  31.763  0.00  0.00    +0.000 N 
ATOM   1729  N1  A   B   6      -9.743  -5.882  32.943  0.00  0.00    +0.000 NA
ATOM   1730  C2  A   B   6     -10.297  -4.682  33.127  0.00  0.00    +0.000 A 
ATOM   1731  N3  A   B   6     -10.101  -3.552  32.452  0.00  0.00    +0.000 NA
ATOM   1732  C4  A   B   6      -9.204  -3.734  31.470  0.00  0.00    +0.000 A 
ATOM   1733  H   A   B   6      -7.633  -7.368  31.041  0.00  0.00    +0.000 HD
ATOM   1734  H   A   B   6      -8.534  -7.986  32.350  0.00  0.00    +0.000 HD
ENDBRANCH17221723
BRANCH17211735
ATOM   1735  O2' A   B   6      -9.373   0.484  32.006  0.00  0.00    +0.000 OA
ATOM   1736  H   A   B   6      -9.704   0.981  31.242  0.00  0.00    +0.000 HD
ENDBRANCH17211735
BRANCH17181737
ATOM   1737  C5' A   B   6      -6.994   0.364  28.228  0.00  0.00    +0.000 C 
BRANCH17371738
ATOM   1738  O5' A   B   6      -6.139  -0.768  28.190  0.00  0.00    +0.000 OA
BRANCH17381739
ATOM   1739  P   A   B   6      -5.176  -1.021  26.940  0.00  0.00    +0.000 P 
ATOM   1740  OP1 A   B   6      -4.408   0.223  26.686  0.00  0.00    +0.000 OA
BRANCH17391741
ATOM   1741  OP2 A   B   6      -4.462  -2.297  27.172  0.00  0.00    +0.000 OA
ATOM   1742  H   A   B   6      -3.868  -2.476  26.426  0.00  0.00    +0.000 HD
ENDBRANCH17391741
BRANCH17391743
ATOM   1743  O3' U   B   5      -6.186  -1.241  25.722  0.00  0.00    +0.000 OA
BRANCH17431746
ATOM   1744  C4' U   B   5      -7.209  -2.872  24.213  0.00  0.00    +0.000 C 
ATOM   1745  O4' U   B   5      -8.372  -3.742  24.308  0.00  0.00    +0.000 OA
ATOM   1746  C3' U   B   5      -6.967  -2.430  25.638  0.00  0.00    +0.000 C 
ATOM   1747  C2' U   B   5      -8.387  -2.263  26.170  0.00  0.00    +0.000 C 
ATOM   1748  C1' U   B   5      -9.103  -3.434  25.482  0.00  0.00    +0.000 C 
BRANCH17481749
ATOM   1749  N1  U   B   5      -9.165  -4.640  26.340  0.00  0.00    +0.000 N 
ATOM   1750  C2  U   B   5     -10.140  -4.673  27.320  0.00  0.00    +0.000 A 
ATOM   1751  O2  U   B   5     -10.935  -3.766  27.498  0.00  0.00    +0.000 OA
ATOM   1752  N3  U   B   5     -10.156  -5.812  28.090  0.00  0.00    +0.000 N 
ATOM   1753  C4  U   B   5      -9.312  -6.895  27.980  0.00  0.00    +0.000 A 
ATOM   1754  O4  U   B   5      -9.450  -7.848  28.748  0.00  0.00    +0.000 OA
ATOM   1755  C5  U   B   5      -8.333  -6.787  26.944  0.00  0.00    +0.000 A 
ATOM   1756  C6  U   B   5      -8.297  -5.688  26.178  0.00  0.00    +0.000 A 
ATOM   1757  H   U   B   5     -10.843  -5.858  28.794  0.00  0.00    +0.000 HD
ENDBRANCH17481749
BRANCH17471758
ATOM   1758  O2' U   B   5      -8.970  -1.051  25.738  0.00  0.00    +0.000 OA
ATOM   1759  H   U   B   5      -8.951  -1.010  24.769  0.00  0.00    +0.000 HD
ENDBRANCH17471758
BRANCH17441760
ATOM   1760  C5' U   B   5      -6.069  -3.603  23.541  0.00  0.00    +0.000 C 
BRANCH17601761
ATOM   1761  O5' U   B   5      -5.674  -4.744  24.289  0.00  0.00    +0.000 OA
BRANCH17611762
ATOM   1762  P   U   B   5      -4.656  -5.811  23.678  0.00  0.00    +0.000 P 
ATOM   1763  OP1 U   B   5      -3.449  -5.087  23.208  0.00  0.00    +0.000 OA
BRANCH17621764
ATOM   1764  OP2 U   B   5      -4.517  -6.924  24.656  0.00  0.00    +0.000 OA
ATOM   1765  H   U   B   5      -3.901  -7.587  24.306  0.00  0.00    +0.000 HD
ENDBRANCH17621764
BRANCH17621766
ATOM   1766  O3' A   B   4      -5.414  -6.373  22.381  0.00  0.00    +0.000 OA
BRANCH17661769
ATOM   1767  C4' A   B   4      -6.625  -8.229  21.348  0.00  0.00    +0.000 C 
ATOM   1768  O4' A   B   4      -8.004  -8.680  21.415  0.00  0.00    +0.000 OA
ATOM   1769  C3' A   B   4      -6.491  -7.288  22.530  0.00  0.00    +0.000 C 
ATOM   1770  C2' A   B   4      -7.854  -6.613  22.565  0.00  0.00    +0.000 C 
ATOM   1771  C1' A   B   4      -8.768  -7.779  22.193  0.00  0.00    +0.000 C 
BRANCH17711772
ATOM   1772  N9  A   B   4      -9.266  -8.490  23.378  0.00  0.00    +0.000 N 
ATOM   1773  C8  A   B   4      -8.856  -9.705  23.865  0.00  0.00    +0.000 A 
ATOM   1774  N7  A   B   4      -9.494 -10.077  24.950  0.00  0.00    +0.000 NA
ATOM   1775  C5  A   B   4     -10.383  -9.041  25.191  0.00  0.00    +0.000 A 
ATOM   1776  C6  A   B   4     -11.345  -8.830  26.191  0.00  0.00    +0.000 A 
ATOM   1777  N6  A   B   4     -11.578  -9.692  27.184  0.00  0.00    +0.000 N 
ATOM   1778  N1  A   B   4     -12.064  -7.689  26.142  0.00  0.00    +0.000 NA
ATOM   1779  C2  A   B   4     -11.826  -6.827  25.148  0.00  0.00    +0.000 A 
ATOM   1780  N3  A   B   4     -10.952  -6.913  24.152  0.00  0.00    +0.000 NA
ATOM   1781  C4  A   B   4     -10.253  -8.057  24.230  0.00  0.00    +0.000 A 
ATOM   1782  H   A   B   4     -11.065 -10.530  27.239  0.00  0.00    +0.000 HD
ATOM   1783  H   A   B   4     -12.263  -9.489  27.861  0.00  0.00    +0.000 HD
ENDBRANCH17711772
BRANCH17701784
ATOM   1784  O2' A   B   4      -7.968  -5.607  21.576  0.00  0.00    +0.000 OA
ATOM   1785  H   A   B   4      -7.787  -5.990  20.703  0.00  0.00    +0.000 HD
ENDBRANCH17701784
BRANCH17671786
ATOM   1786  C5' A   B   4      -5.697  -9.420  21.346  0.00  0.00    +0.000 C 
BRANCH17861787
ATOM   1787  O5' A   B   4      -5.871 -10.205  22.518  0.00  0.00    +0.000 OA
BRANCH17871788
ATOM   1788  P   A   B   4      -5.238 -11.668  22.628  0.00  0.00    +0.000 P 
ATOM   1789  OP1 A   B   4      -3.810 -11.582  22.232  0.00  0.00    +0.000 OA
BRANCH17881790
ATOM   1790  OP2 A   B   4      -5.601 -12.220  23.957  0.00  0.00    +0.000 OA
ATOM   1791  H   A   B   4      -5.228 -13.111  24.050  0.00  0.00    +0.000 HD
ENDBRANCH17881790
BRANCH17881792
ATOM   1792  O3' A   B   3      -6.009 -12.495  21.505  0.00  0.00    +0.000 OA
BRANCH17921795
ATOM   1793  C4' A   B   3      -7.739 -14.157  21.029  0.00  0.00    +0.000 C 
ATOM   1794  O4' A   B   3      -9.178 -14.076  20.848  0.00  0.00    +0.000 OA
ATOM   1795  C3' A   B   3      -7.380 -12.835  21.677  0.00  0.00    +0.000 C 
ATOM   1796  C2' A   B   3      -8.328 -11.867  20.983  0.00  0.00    +0.000 C 
ATOM   1797  C1' A   B   3      -9.587 -12.720  20.856  0.00  0.00    +0.000 C 
BRANCH17971798
ATOM   1798  N9  A   B   3     -10.517 -12.509  21.976  0.00  0.00    +0.000 N 
ATOM   1799  C8  A   B   3     -10.772 -13.345  23.034  0.00  0.00    +0.000 A 
ATOM   1800  N7  A   B   3     -11.663 -12.871  23.871  0.00  0.00    +0.000 NA
ATOM   1801  C5  A   B   3     -12.017 -11.644  23.327  0.00  0.00    +0.000 A 
ATOM   1802  C6  A   B   3     -12.922 -10.648  23.734  0.00  0.00    +0.000 A 
ATOM   1803  N6  A   B   3     -13.665 -10.732  24.840  0.00  0.00    +0.000 N 
ATOM   1804  N1  A   B   3     -13.034  -9.547  22.960  0.00  0.00    +0.000 NA
ATOM   1805  C2  A   B   3     -12.286  -9.460  21.853  0.00  0.00    +0.000 A 
ATOM   1806  N3  A   B   3     -11.407 -10.329  21.365  0.00  0.00    +0.000 NA
ATOM   1807  C4  A   B   3     -11.320 -11.413  22.160  0.00  0.00    +0.000 A 
ATOM   1808  H   A   B   3     -14.283 -10.002  25.075  0.00  0.00    +0.000 HD
ATOM   1809  H   A   B   3     -13.595 -11.524  25.421  0.00  0.00    +0.000 HD
ENDBRANCH17971798
BRANCH17961810
ATOM   1810  O2' A   B   3      -7.873 -11.522  19.687  0.00  0.00    +0.000 OA
ATOM   1811  H   A   B   3      -7.750 -12.328  19.162  0.00  0.00    +0.000 HD
ENDBRANCH17961810
BRANCH17931812
ATOM   1812  C5' A   B   3      -7.391 -15.397  21.816  0.00  0.00    +0.000 C 
BRANCH18121813
ATOM   1813  O5' A   B   3      -8.049 -15.400  23.080  0.00  0.00    +0.000 OA
BRANCH18131814
ATOM   1814  P   A   B   3      -8.161 -16.740  23.938  0.00  0.00    +0.000 P 
ATOM   1815  OP1 A   B   3      -6.806 -17.340  24.033  0.00  0.00    +0.000 OA
BRANCH18141816
ATOM   1816  OP2 A   B   3      -8.915 -16.423  25.174  0.00  0.00    +0.000 OA
ATOM   1817  H   A   B   3      -9.775 -16.040  24.939  0.00  0.00    +0.000 HD
ENDBRANCH18141816
BRANCH18141818
ATOM   1818  O3' U   B   2      -9.049 -17.681  23.008  0.00  0.00    +0.000 OA
BRANCH18181821
ATOM   1819  C4' U   B   2     -11.230 -18.762  22.778  0.00  0.00    +0.000 C 
ATOM   1820  O4' U   B   2     -12.492 -18.354  22.185  0.00  0.00    +0.000 OA
ATOM   1821  C3' U   B   2     -10.457 -17.468  22.916  0.00  0.00    +0.000 C 
ATOM   1822  C2' U   B   2     -10.870 -16.701  21.665  0.00  0.00    +0.000 C 
ATOM   1823  C1' U   B   2     -12.343 -17.095  21.550  0.00  0.00    +0.000 C 
BRANCH18231824
ATOM   1824  N1  U   B   2     -13.246 -16.120  22.202  0.00  0.00    +0.000 N 
ATOM   1825  C2  U   B   2     -13.475 -14.911  21.563  0.00  0.00    +0.000 A 
ATOM   1826  O2  U   B   2     -12.963 -14.616  20.495  0.00  0.00    +0.000 OA
ATOM   1827  N3  U   B   2     -14.325 -14.053  22.217  0.00  0.00    +0.000 N 
ATOM   1828  C4  U   B   2     -14.960 -14.277  23.419  0.00  0.00    +0.000 A 
ATOM   1829  O4  U   B   2     -15.700 -13.405  23.883  0.00  0.00    +0.000 OA
ATOM   1830  C5  U   B   2     -14.678 -15.549  24.019  0.00  0.00    +0.000 A 
ATOM   1831  C6  U   B   2     -13.855 -16.408  23.401  0.00  0.00    +0.000 A 
ATOM   1832  H   U   B   2     -14.499 -13.187  21.781  0.00  0.00    +0.000 HD
ENDBRANCH18231824
BRANCH18221833
ATOM   1833  O2' U   B   2     -10.173 -17.150  20.518  0.00  0.00    +0.000 OA
ATOM   1834  H   U   B   2     -10.313 -18.103  20.407  0.00  0.00    +0.000 HD
ENDBRANCH18221833
BRANCH18191835
ATOM   1835  C5' U   B   2     -11.483 -19.511  24.061  0.00  0.00    +0.000 C 
BRANCH18351836
ATOM   1836  O5' U   B   2     -12.097 -18.670  25.027  0.00  0.00    +0.000 OA
BRANCH18361837
ATOM   1837  P   U   B   2     -12.507 -19.214  26.476  0.00  0.00    +0.000 P 
ATOM   1838  OP2 U   B   2     -13.645 -18.393  26.960  0.00  0.00    +0.000 OA
BRANCH18371839
ATOM   1839  OP1 U   B   2     -11.277 -19.327  27.292  0.00  0.00    +0.000 OA
ATOM   1840  H   U   B   2     -10.637 -19.895  26.835  0.00  0.00    +0.000 HD
ENDBRANCH18371839
BRANCH18371841
ATOM   1841  O3' C   B   1     -13.000 -20.741  26.171  0.00  0.00    +0.000 OA
BRANCH18411844
ATOM   1842  C4' C   B   1     -14.169 -22.288  27.630  0.00  0.00    +0.000 C 
ATOM   1843  O4' C   B   1     -15.445 -22.975  27.552  0.00  0.00    +0.000 OA
ATOM   1844  C3' C   B   1     -14.276 -21.184  26.610  0.00  0.00    +0.000 C 
ATOM   1845  C2' C   B   1     -15.088 -21.834  25.507  0.00  0.00    +0.000 C 
ATOM   1846  C1' C   B   1     -16.053 -22.709  26.308  0.00  0.00    +0.000 C 
BRANCH18461847
ATOM   1847  N1  C   B   1     -17.355 -22.070  26.550  0.00  0.00    +0.000 N 
ATOM   1848  C2  C   B   1     -18.292 -22.058  25.520  0.00  0.00    +0.000 A 
ATOM   1849  O2  C   B   1     -18.011 -22.580  24.432  0.00  0.00    +0.000 OA
ATOM   1850  N3  C   B   1     -19.496 -21.471  25.730  0.00  0.00    +0.000 NA
ATOM   1851  C4  C   B   1     -19.773 -20.917  26.914  0.00  0.00    +0.000 A 
ATOM   1852  N4  C   B   1     -20.972 -20.355  27.078  0.00  0.00    +0.000 N 
ATOM   1853  C5  C   B   1     -18.836 -20.922  27.983  0.00  0.00    +0.000 A 
ATOM   1854  C6  C   B   1     -17.651 -21.503  27.761  0.00  0.00    +0.000 A 
ATOM   1855  H   C   B   1     -21.620 -20.352  26.337  0.00  0.00    +0.000 HD
ATOM   1856  H   C   B   1     -21.209 -19.943  27.940  0.00  0.00    +0.000 HD
ENDBRANCH18461847
BRANCH18451857
ATOM   1857  O2' C   B   1     -14.282 -22.657  24.688  0.00  0.00    +0.000 OA
ATOM   1858  H   C   B   1     -13.836 -23.321  25.236  0.00  0.00    +0.000 HD
ENDBRANCH18451857
BRANCH18421859
ATOM   1859  C5' C   B   1     -13.920 -21.846  29.046  0.00  0.00    +0.000 C 
BRANCH18591860
ATOM   1860  O5' C   B   1     -14.840 -20.844  29.433  0.00  0.00    +0.000 OA
BRANCH18601861
ATOM   1861  P   C   B   1     -14.902 -20.243  30.924  0.00  0.00    +0.000 P 
BRANCH18611862
ATOM   1862  OP1 C   B   1     -13.608 -19.879  31.366  0.00  0.00    +0.000 OA
ATOM   1863  H   C   B   1     -13.019 -20.648  31.311  0.00  0.00    +0.000 HD
ENDBRANCH18611862
BRANCH18611864
ATOM   1864  OP3 C   B   1     -14.996 -19.258  31.169  0.00  0.00    +0.000 OA
BRANCH18641865
ATOM   1865  OP2 C   B   1     -16.120 -19.467  31.043  0.00  0.00    +0.000 OA
ATOM   1866  H   C   B   1     -16.621 -18.655  31.218  0.00  0.00    +0.000 HD
ENDBRANCH18641865
ENDBRANCH18611864
ENDBRANCH18601861
ENDBRANCH18591860
ENDBRANCH18421859
ENDBRANCH18411844
ENDBRANCH18371841
ENDBRANCH18361837
ENDBRANCH18351836
ENDBRANCH18191835
ENDBRANCH18181821
ENDBRANCH18141818
ENDBRANCH18131814
ENDBRANCH18121813
ENDBRANCH17931812
ENDBRANCH17921795
ENDBRANCH17881792
ENDBRANCH17871788
ENDBRANCH17861787
ENDBRANCH17671786
ENDBRANCH17661769
ENDBRANCH17621766
ENDBRANCH17611762
ENDBRANCH17601761
ENDBRANCH17441760
ENDBRANCH17431746
ENDBRANCH17391743
ENDBRANCH17381739
ENDBRANCH17371738
ENDBRANCH17181737
ENDBRANCH17171720
ENDBRANCH17131717
ENDBRANCH17121713
ENDBRANCH17111712
ENDBRANCH16941711
ENDBRANCH16931696
ENDBRANCH16891693
ENDBRANCH16881689
ENDBRANCH16871688
ENDBRANCH16711687
ENDBRANCH16701673
ENDBRANCH16661670
ENDBRANCH16651666
ENDBRANCH16641665
ENDBRANCH16451664
ENDBRANCH16441647
ENDBRANCH16401644
ENDBRANCH16391640
ENDBRANCH16381639
ENDBRANCH16221638
ENDBRANCH16211624
ENDBRANCH16171621
ENDBRANCH16161617
ENDBRANCH16151616
ENDBRANCH15991615
ENDBRANCH15981601
ENDBRANCH15941598
ENDBRANCH15931594
ENDBRANCH15921593
ENDBRANCH15761592
ENDBRANCH15751578
ENDBRANCH15711575
ENDBRANCH15701571
ENDBRANCH15691570
ENDBRANCH15521569
ENDBRANCH15511554
ENDBRANCH15471551
ENDBRANCH15461547
ENDBRANCH15451546
ENDBRANCH15261545
ENDBRANCH15251528
ENDBRANCH15211525
ENDBRANCH15201521
ENDBRANCH15191520
ENDBRANCH14811519
ENDBRANCH14801501
ENDBRANCH14761480
ENDBRANCH14751476
ENDBRANCH14741475
ENDBRANCH14571474
ENDBRANCH14561459
ENDBRANCH14521456
ENDBRANCH14511452
ENDBRANCH14501451
ENDBRANCH14291450
ENDBRANCH14281431
ENDBRANCH14241428
ENDBRANCH14231424
ENDBRANCH14221423
ENDBRANCH14031422
ENDBRANCH14021405
ENDBRANCH13981402
ENDBRANCH13971398
ENDBRANCH13961397
ENDBRANCH13771396
ENDBRANCH13761379
ENDBRANCH13721376
ENDBRANCH13711372
ENDBRANCH13701371
ENDBRANCH13511370
ENDBRANCH13501353
ENDBRANCH13461350
ENDBRANCH13451346
ENDBRANCH13441345
ENDBRANCH13271344
ENDBRANCH13261329
ENDBRANCH13221326
ENDBRANCH13211322
ENDBRANCH13201321
ENDBRANCH13041320
ENDBRANCH13031306
ENDBRANCH12991303
ENDBRANCH12981299
ENDBRANCH12971298
ENDBRANCH12811297
ENDBRANCH12801283
ENDBRANCH12761280
ENDBRANCH12751276
ENDBRANCH12741275
ENDBRANCH12581274
ENDBRANCH12571260
ENDBRANCH12531257
ENDBRANCH12521253
ENDBRANCH12511252
ENDBRANCH12351251
ENDBRANCH12341237
ENDBRANCH12301234
ENDBRANCH12291230
ENDBRANCH12281229
ENDBRANCH12121228
ENDBRANCH12111214
ENDBRANCH12071211
ENDBRANCH12061207
ENDBRANCH12051206
ENDBRANCH11891205
ENDBRANCH11881191
ENDBRANCH11841188
ENDBRANCH11831184
ENDBRANCH11821183
ENDBRANCH11631182
ENDBRANCH11621165
ENDBRANCH11581162
ENDBRANCH11571158
ENDBRANCH11561157
ENDBRANCH11371156
ENDBRANCH11361139
ENDBRANCH11321136
ENDBRANCH11311132
ENDBRANCH11301131
ENDBRANCH11111130
ENDBRANCH11101113
ENDBRANCH11061110
ENDBRANCH11051106
ENDBRANCH11041105
ENDBRANCH10851104
ENDBRANCH10841087
ENDBRANCH10801084
ENDBRANCH10791080
ENDBRANCH10781079
ENDBRANCH10621078
ENDBRANCH10611064
ENDBRANCH10571061
ENDBRANCH10561057
ENDBRANCH10551056
ENDBRANCH10361055
ENDBRANCH10351038
ENDBRANCH10311035
ENDBRANCH10301031
ENDBRANCH10291030
ENDBRANCH10101029
ENDBRANCH10091012
ENDBRANCH10051009
ENDBRANCH10041005
ENDBRANCH10031004
ENDBRANCH 9871003
ENDBRANCH 986 989
ENDBRANCH 982 986
ENDBRANCH 981 982
ENDBRANCH 980 981
ENDBRANCH 961 980
ENDBRANCH 960 963
ENDBRANCH 956 960
ENDBRANCH 955 956
ENDBRANCH 954 955
ENDBRANCH 938 954
ENDBRANCH 937 940
ENDBRANCH   1 937
TORSDOF 611
