REMARK  Name = /storage/kiran-stuff/aaRS/phase2/energy_scoring/vina_182jobs/fulllength_deep_pro_PRO/ligand.h.pdb
REMARK  2 active torsions:
REMARK  status: ('A' for Active; 'I' for Inactive)
REMARK    1  A    between atoms: CA_2  and  C_3
REMARK    2  A    between atoms: C_3  and  OXT_8
REMARK                            x       y       z     vdW  Elec       q    Type
REMARK                         _______ _______ _______ _____ _____    ______ ____
ROOT
ATOM      1  N   PRO C   1     -24.022  19.240 -23.501  0.00  0.00    +0.000 NA
ATOM      2  CA  PRO C   1     -23.205  20.025 -22.567  0.00  0.00    +0.000 C 
ATOM      3  CB  PRO C   1     -24.082  20.173 -21.351  0.00  0.00    +0.000 C 
ATOM      4  CG  PRO C   1     -24.907  18.978 -21.383  0.00  0.00    +0.000 C 
ATOM      5  CD  PRO C   1     -25.161  18.693 -22.815  0.00  0.00    +0.000 C 
ATOM      6  H   PRO C   1     -24.341  19.842 -24.260  0.00  0.00    +0.000 HD
ENDROOT
BRANCH   2   7
ATOM      7  C   PRO C   1     -21.937  19.292 -22.182  0.00  0.00    +0.000 C 
ATOM      8  O   PRO C   1     -21.660  18.237 -22.735  0.00  0.00    +0.000 OA
BRANCH   7   9
ATOM      9  OXT PRO C   1     -21.208  19.806 -21.306  0.00  0.00    +0.000 OA
ATOM     10  H   PRO C   1     -21.456  20.616 -20.906  0.00  0.00    +0.000 HD
ENDBRANCH   7   9
ENDBRANCH   2   7
TORSDOF 2
